 Groundwater/Surface Water exchange (L3/T)
 for each MODFLOW River Cell
 Positive: River water seeps to the aquifer
 Negative: Groundwater flows from aquifer to river
 
 Day:           1
 Daily GW/SW Exchange for each River Cell
 Layer, Row, Column, Flow Rate
           1           6          73  0.0000000E+00
           1           7          73  0.0000000E+00
           1           8          73  0.0000000E+00
           1           9          63  0.0000000E+00
           1           9          72  0.0000000E+00
           1           9          73  0.0000000E+00
           1          10          62  0.0000000E+00
           1          10          72  0.0000000E+00
           1          11          58  0.0000000E+00
           1          11          62  0.0000000E+00
           1          11          71  0.0000000E+00
           1          11          72  0.0000000E+00
           1          12          57  0.0000000E+00
           1          12          62  0.0000000E+00
           1          12          71  0.0000000E+00
           1          13          57  0.0000000E+00
           1          13          62  0.0000000E+00
           1          13          69  0.0000000E+00
           1          13          70  0.0000000E+00
           1          13          71  0.0000000E+00
           1          14          58  0.0000000E+00
           1          14          62  0.0000000E+00
           1          14          68  0.0000000E+00
           1          14          69  0.0000000E+00
           1          14          69  0.0000000E+00
           1          14          69  0.0000000E+00
           1          15          55  0.0000000E+00
           1          15          56  0.0000000E+00
           1          15          57  0.0000000E+00
           1          15          58  0.0000000E+00
           1          15          58  0.0000000E+00
           1          15          58  0.0000000E+00
           1          15          59  0.0000000E+00
           1          15          60  0.0000000E+00
           1          15          63  0.0000000E+00
           1          15          64  0.0000000E+00
           1          15          65  0.0000000E+00
           1          15          66  0.0000000E+00
           1          15          67  0.0000000E+00
           1          15          68  0.0000000E+00
           1          15          69  0.0000000E+00
           1          16          53  0.0000000E+00
           1          16          54  0.0000000E+00
           1          16          55  0.0000000E+00
           1          16          60  0.0000000E+00
           1          16          61  0.0000000E+00
           1          16          63  0.0000000E+00
           1          16          63  0.0000000E+00
           1          16          64  0.0000000E+00
           1          16          69  0.0000000E+00
           1          16          70  0.0000000E+00
           1          17          62  0.0000000E+00
           1          17          62  0.0000000E+00
           1          17          62  0.0000000E+00
           1          17          63  0.0000000E+00
           1          17          63  0.0000000E+00
           1          17          63  0.0000000E+00
           1          17          70  0.0000000E+00
           1          18          62  0.0000000E+00
           1          19          62  0.0000000E+00
           1          20          62  0.0000000E+00
           1          21          62  0.0000000E+00
           1          22          62  0.0000000E+00
           1          23          62  0.0000000E+00
           1          24          54  0.0000000E+00
           1          24          62  0.0000000E+00
           1          25          46  0.0000000E+00
           1          25          54  0.0000000E+00
           1          25          62  0.0000000E+00
           1          26          46  0.0000000E+00
           1          26          54  0.0000000E+00
           1          26          62  0.0000000E+00
           1          26          62  0.0000000E+00
           1          26          62  0.0000000E+00
           1          26          63  0.0000000E+00
           1          26          64  0.0000000E+00
           1          27          46  0.0000000E+00
           1          27          54  0.0000000E+00
           1          27          62  0.0000000E+00
           1          27          64  0.0000000E+00
           1          27          65  0.0000000E+00
           1          27          66  0.0000000E+00
           1          27          67  0.0000000E+00
           1          28          46  0.0000000E+00
           1          28          53  0.0000000E+00
           1          28          62  0.0000000E+00
           1          29          38  0.0000000E+00
           1          29          46  0.0000000E+00
           1          29          53  0.0000000E+00
           1          29          53  0.0000000E+00
           1          29          61  0.0000000E+00
           1          30          37  0.0000000E+00
           1          30          47  0.0000000E+00
           1          30          53  0.0000000E+00
           1          30          61  0.0000000E+00
           1          31          37  0.0000000E+00
           1          31          37  0.0000000E+00
           1          31          47  0.0000000E+00
           1          31          48  0.0000000E+00
           1          31          53  0.0000000E+00
           1          31          60  0.0000000E+00
           1          31          61  0.0000000E+00
           1          32          37  0.0000000E+00
           1          32          37  0.0000000E+00
           1          32          48  0.0000000E+00
           1          32          52  0.0000000E+00
           1          32          53  0.0000000E+00
           1          32          59  0.0000000E+00
           1          32          60  0.0000000E+00
           1          33          38  0.0000000E+00
           1          33          38  0.0000000E+00
           1          33          39  0.0000000E+00
           1          33          40  0.0000000E+00
           1          33          49  0.0000000E+00
           1          33          52  0.0000000E+00
           1          33          59  0.0000000E+00
           1          34          37  0.0000000E+00
           1          34          37  0.0000000E+00
           1          34          37  0.0000000E+00
           1          34          38  0.0000000E+00
           1          34          38  0.0000000E+00
           1          34          39  0.0000000E+00
           1          34          40  0.0000000E+00
           1          34          40  0.0000000E+00
           1          34          41  0.0000000E+00
           1          34          49  0.0000000E+00
           1          34          49  0.0000000E+00
           1          34          52  0.0000000E+00
           1          34          58  0.0000000E+00
           1          34          59  0.0000000E+00
           1          35          37  0.0000000E+00
           1          35          49  0.0000000E+00
           1          35          49  0.0000000E+00
           1          35          49  0.0000000E+00
           1          35          50  0.0000000E+00
           1          35          51  0.0000000E+00
           1          35          52  0.0000000E+00
           1          35          58  0.0000000E+00
           1          36          37  0.0000000E+00
           1          36          49  0.0000000E+00
           1          36          57  0.0000000E+00
           1          36          57  0.0000000E+00
           1          36          57  0.0000000E+00
           1          36          58  0.0000000E+00
           1          37          36  0.0000000E+00
           1          37          49  0.0000000E+00
           1          37          53  0.0000000E+00
           1          38          53  0.0000000E+00
           1          38          54  0.0000000E+00
           1          37          54  0.0000000E+00
           1          37          55  0.0000000E+00
           1          37          56  0.0000000E+00
           1          37          57  0.0000000E+00
           1          37          57  0.0000000E+00
           1          37          58  0.0000000E+00
           1          38          36  0.0000000E+00
           1          38          49  0.0000000E+00
           1          38          50  0.0000000E+00
           1          38          50  0.0000000E+00
           1          38          51  0.0000000E+00
           1          38          51  0.0000000E+00
           1          38          52  0.0000000E+00
           1          38          53  0.0000000E+00
           1          38          54  0.0000000E+00
           1          38          59  0.0000000E+00
           1          39          35  0.0000000E+00
           1          39          50  0.0000000E+00
           1          39          50  0.0000000E+00
           1          39          50  0.0000000E+00
           1          39          51  0.0000000E+00
           1          40          34  0.0000000E+00
           1          40          35  0.0000000E+00
           1          40          49  0.0000000E+00
           1          41          34  0.0000000E+00
           1          41          34  0.0000000E+00
           1          41          35  0.0000000E+00
           1          41          49  0.0000000E+00
           1          42          34  0.0000000E+00
           1          42          49  0.0000000E+00
           1          43          35  0.0000000E+00
           1          43          49  0.0000000E+00
           1          44          35  0.0000000E+00
           1          44          49  0.0000000E+00
           1          45          35  0.0000000E+00
           1          45          47  0.0000000E+00
           1          45          49  0.0000000E+00
           1          46          35  0.0000000E+00
           1          46          47  0.0000000E+00
           1          46          49  0.0000000E+00
           1          47          32  0.0000000E+00
           1          47          33  0.0000000E+00
           1          47          34  0.0000000E+00
           1          47          35  0.0000000E+00
           1          47          35  0.0000000E+00
           1          47          36  0.0000000E+00
           1          47          36  0.0000000E+00
           1          47          36  0.0000000E+00
           1          47          40  0.0000000E+00
           1          47          47  0.0000000E+00
           1          47          48  0.0000000E+00
           1          47          48  0.0000000E+00
           1          47          48  0.0000000E+00
           1          47          49  0.0000000E+00
           1          47          49  0.0000000E+00
           1          47          50  0.0000000E+00
           1          48          32  0.0000000E+00
           1          48          36  0.0000000E+00
           1          48          37  0.0000000E+00
           1          48          39  0.0000000E+00
           1          48          40  0.0000000E+00
           1          48          47  0.0000000E+00
           1          48          48  0.0000000E+00
           1          48          49  0.0000000E+00
           1          48          50  0.0000000E+00
           1          48          50  0.0000000E+00
           1          48          51  0.0000000E+00
           1          48          52  0.0000000E+00
           1          48          62  0.0000000E+00
           1          48          63  0.0000000E+00
           1          49          37  0.0000000E+00
           1          49          38  0.0000000E+00
           1          49          39  0.0000000E+00
           1          50          47  0.0000000E+00
           1          49          47  0.0000000E+00
           1          49          48  0.0000000E+00
           1          50          48  0.0000000E+00
           1          49          61  0.0000000E+00
           1          49          62  0.0000000E+00
           1          50          38  0.0000000E+00
           1          50          39  0.0000000E+00
           1          50          39  0.0000000E+00
           1          50          39  0.0000000E+00
           1          50          46  0.0000000E+00
           1          50          47  0.0000000E+00
           1          50          47  0.0000000E+00
           1          50          48  0.0000000E+00
           1          50          48  0.0000000E+00
           1          50          59  0.0000000E+00
           1          50          60  0.0000000E+00
           1          51          39  0.0000000E+00
           1          51          39  0.0000000E+00
           1          51          46  0.0000000E+00
           1          51          47  0.0000000E+00
           1          51          58  0.0000000E+00
           1          51          58  0.0000000E+00
           1          51          59  0.0000000E+00
           1          51          59  0.0000000E+00
           1          52          40  0.0000000E+00
           1          52          46  0.0000000E+00
           1          52          47  0.0000000E+00
           1          52          58  0.0000000E+00
           1          53          40  0.0000000E+00
           1          53          40  0.0000000E+00
           1          53          46  0.0000000E+00
           1          53          46  0.0000000E+00
           1          53          46  0.0000000E+00
           1          53          47  0.0000000E+00
           1          53          57  0.0000000E+00
           1          53          58  0.0000000E+00
           1          54          40  0.0000000E+00
           1          54          41  0.0000000E+00
           1          54          46  0.0000000E+00
           1          54          57  0.0000000E+00
           1          55          41  0.0000000E+00
           1          55          46  0.0000000E+00
           1          55          56  0.0000000E+00
           1          55          57  0.0000000E+00
           1          56          41  0.0000000E+00
           1          56          45  0.0000000E+00
           1          56          56  0.0000000E+00
           1          57          41  0.0000000E+00
           1          57          45  0.0000000E+00
           1          57          46  0.0000000E+00
           1          57          56  0.0000000E+00
           1          58          31  0.0000000E+00
           1          58          41  0.0000000E+00
           1          58          42  0.0000000E+00
           1          58          42  0.0000000E+00
           1          58          44  0.0000000E+00
           1          58          44  0.0000000E+00
           1          58          45  0.0000000E+00
           1          58          45  0.0000000E+00
           1          58          45  0.0000000E+00
           1          58          45  0.0000000E+00
           1          58          45  0.0000000E+00
           1          58          46  0.0000000E+00
           1          58          56  0.0000000E+00
           1          59          31  0.0000000E+00
           1          59          32  0.0000000E+00
           1          59          42  0.0000000E+00
           1          59          43  0.0000000E+00
           1          59          43  0.0000000E+00
           1          59          43  0.0000000E+00
           1          59          44  0.0000000E+00
           1          59          45  0.0000000E+00
           1          59          56  0.0000000E+00
           1          60          32  0.0000000E+00
           1          60          42  0.0000000E+00
           1          60          43  0.0000000E+00
           1          60          57  0.0000000E+00
           1          61          32  0.0000000E+00
           1          61          42  0.0000000E+00
           1          61          57  0.0000000E+00
           1          62          32  0.0000000E+00
           1          62          33  0.0000000E+00
           1          62          41  0.0000000E+00
           1          62          42  0.0000000E+00
           1          62          57  0.0000000E+00
           1          63          33  0.0000000E+00
           1          63          41  0.0000000E+00
           1          63          57  0.0000000E+00
           1          64          33  0.0000000E+00
           1          65          33  0.0000000E+00
           1          64          41  0.0000000E+00
           1          64          57  0.0000000E+00
           1          65          33  0.0000000E+00
           1          65          56  0.0000000E+00
           1          65          57  0.0000000E+00
           1          66          28  0.0000000E+00
           1          66          34  0.0000000E+00
           1          66          40  0.0000000E+00
           1          66          55  0.0000000E+00
           1          66          56  0.0000000E+00
           1          67          28  0.0000000E+00
           1          67          35  0.0000000E+00
           1          67          40  0.0000000E+00
           1          67          53  0.0000000E+00
           1          67          54  0.0000000E+00
           1          67          55  0.0000000E+00
           1          68          28  0.0000000E+00
           1          68          36  0.0000000E+00
           1          68          40  0.0000000E+00
           1          68          51  0.0000000E+00
           1          68          52  0.0000000E+00
           1          68          53  0.0000000E+00
           1          69          28  0.0000000E+00
           1          69          29  0.0000000E+00
           1          69          36  0.0000000E+00
           1          69          39  0.0000000E+00
           1          69          40  0.0000000E+00
           1          69          47  0.0000000E+00
           1          69          48  0.0000000E+00
           1          69          49  0.0000000E+00
           1          69          50  0.0000000E+00
           1          69          51  0.0000000E+00
           1          70          29  0.0000000E+00
           1          70          30  0.0000000E+00
           1          71          30  0.0000000E+00
           1          70          36  0.0000000E+00
           1          70          36  0.0000000E+00
           1          70          38  0.0000000E+00
           1          70          39  0.0000000E+00
           1          70          46  0.0000000E+00
           1          70          47  0.0000000E+00
           1          71          30  0.0000000E+00
           1          71          31  0.0000000E+00
           1          71          32  0.0000000E+00
           1          71          37  0.0000000E+00
           1          71          38  0.0000000E+00
           1          71          45  0.0000000E+00
           1          71          46  0.0000000E+00
           1          72          30  0.0000000E+00
           1          72          31  0.0000000E+00
           1          72          31  0.0000000E+00
           1          72          32  0.0000000E+00
           1          72          32  0.0000000E+00
           1          72          32  0.0000000E+00
           1          72          37  0.0000000E+00
           1          72          37  0.0000000E+00
           1          72          37  0.0000000E+00
           1          72          44  0.0000000E+00
           1          72          45  0.0000000E+00
           1          73          31  0.0000000E+00
           1          73          32  0.0000000E+00
           1          73          36  0.0000000E+00
           1          73          37  0.0000000E+00
           1          73          44  0.0000000E+00
           1          74          32  0.0000000E+00
           1          74          33  0.0000000E+00
           1          74          34  0.0000000E+00
           1          74          35  0.0000000E+00
           1          74          36  0.0000000E+00
           1          74          36  0.0000000E+00
           1          74          36  0.0000000E+00
           1          74          44  0.0000000E+00
           1          75          36  0.0000000E+00
           1          75          44  0.0000000E+00
           1          75          44  0.0000000E+00
           1          76          37  0.0000000E+00
           1          76          45  0.0000000E+00
           1          77          37  0.0000000E+00
           1          77          45  0.0000000E+00
           1          77          46  0.0000000E+00
           1          77          46  0.0000000E+00
           1          78          37  0.0000000E+00
           1          78          46  0.0000000E+00
           1          78          46  0.0000000E+00
           1          78          46  0.0000000E+00
           1          79          33  0.0000000E+00
           1          80          34  0.0000000E+00
           1          79          34  0.0000000E+00
           1          79          37  0.0000000E+00
           1          79          46  0.0000000E+00
           1          80          47  0.0000000E+00
           1          80          34  0.0000000E+00
           1          80          34  0.0000000E+00
           1          80          35  0.0000000E+00
           1          80          37  0.0000000E+00
           1          80          38  0.0000000E+00
           1          80          47  0.0000000E+00
           1          80          47  0.0000000E+00
           1          81          36  0.0000000E+00
           1          81          38  0.0000000E+00
           1          81          47  0.0000000E+00
           1          82          35  0.0000000E+00
           1          82          37  0.0000000E+00
           1          82          38  0.0000000E+00
           1          82          47  0.0000000E+00
           1          83          47  0.0000000E+00
           1          83          35  0.0000000E+00
           1          83          35  0.0000000E+00
           1          83          35  0.0000000E+00
           1          83          36  0.0000000E+00
           1          83          37  0.0000000E+00
           1          83          47  0.0000000E+00
           1          84          35  0.0000000E+00
           1          84          47  0.0000000E+00
           1          85          35  0.0000000E+00
           1          85          46  0.0000000E+00
           1          85          46  0.0000000E+00
           1          85          47  0.0000000E+00
           1          85          47  0.0000000E+00
           1          86          35  0.0000000E+00
           1          86          46  0.0000000E+00
           1          87          34  0.0000000E+00
           1          87          35  0.0000000E+00
           1          87          45  0.0000000E+00
           1          87          46  0.0000000E+00
           1          87          49  0.0000000E+00
           1          88          33  0.0000000E+00
           1          88          34  0.0000000E+00
           1          88          45  0.0000000E+00
           1          88          47  0.0000000E+00
           1          89          47  0.0000000E+00
           1          88          48  0.0000000E+00
           1          88          49  0.0000000E+00
           1          89          33  0.0000000E+00
           1          89          42  0.0000000E+00
           1          89          44  0.0000000E+00
           1          89          45  0.0000000E+00
           1          89          46  0.0000000E+00
           1          89          47  0.0000000E+00
           1          90          33  0.0000000E+00
           1          90          33  0.0000000E+00
           1          90          33  0.0000000E+00
           1          90          38  0.0000000E+00
           1          90          39  0.0000000E+00
           1          90          40  0.0000000E+00
           1          90          41  0.0000000E+00
           1          90          41  0.0000000E+00
           1          90          41  0.0000000E+00
           1          90          42  0.0000000E+00
           1          90          43  0.0000000E+00
           1          90          43  0.0000000E+00
           1          90          43  0.0000000E+00
           1          90          44  0.0000000E+00
           1          90          44  0.0000000E+00
           1          90          45  0.0000000E+00
           1          90          46  0.0000000E+00
           1          91          33  0.0000000E+00
           1          91          37  0.0000000E+00
           1          91          38  0.0000000E+00
           1          91          41  0.0000000E+00
           1          91          42  0.0000000E+00
           1          91          43  0.0000000E+00
           1          91          43  0.0000000E+00
           1          91          44  0.0000000E+00
           1          92          33  0.0000000E+00
           1          92          37  0.0000000E+00
           1          93          33  0.0000000E+00
           1          93          34  0.0000000E+00
           1          93          36  0.0000000E+00
           1          93          37  0.0000000E+00
           1          94          34  0.0000000E+00
           1          94          36  0.0000000E+00
           1          95          34  0.0000000E+00
           1          95          36  0.0000000E+00
           1          96          34  0.0000000E+00
           1          96          35  0.0000000E+00
           1          96          36  0.0000000E+00
           1          97          34  0.0000000E+00
           1          98          34  0.0000000E+00
           1          97          35  0.0000000E+00
           1          98          33  0.0000000E+00
           1          98          34  0.0000000E+00
           1          98          34  0.0000000E+00
           1          98          34  0.0000000E+00
           1          99          34  0.0000000E+00
           1          99          34  0.0000000E+00
           1          99          34  0.0000000E+00
           1         100          34  0.0000000E+00
           1         101          30  0.0000000E+00
           1         101          33  0.0000000E+00
           1         102          29  0.0000000E+00
           1         102          29  0.0000000E+00
           1         102          29  0.0000000E+00
           1         102          33  0.0000000E+00
           1         103          29  0.0000000E+00
           1         103          29  0.0000000E+00
           1         103          33  0.0000000E+00
           1         103          36  0.0000000E+00
           1         104          29  0.0000000E+00
           1         104          34  0.0000000E+00
           1         104          34  0.0000000E+00
           1         104          35  0.0000000E+00
           1         105          30  0.0000000E+00
           1         105          34  0.0000000E+00
           1         105          34  0.0000000E+00
           1         105          34  0.0000000E+00
           1         106          28  0.0000000E+00
           1         107          28  0.0000000E+00
           1         106          30  0.0000000E+00
           1         106          33  0.0000000E+00
           1         107          28  0.0000000E+00
           1         107          29  0.0000000E+00
           1         107          30  0.0000000E+00
           1         107          33  0.0000000E+00
           1         108          29  0.0000000E+00
           1         108          30  0.0000000E+00
           1         108          30  0.0000000E+00
           1         108          30  0.0000000E+00
           1         108          32  0.0000000E+00
           1         108          33  0.0000000E+00
           1         109          29  0.0000000E+00
           1         109          30  0.0000000E+00
           1         109          30  0.0000000E+00
           1         109          32  0.0000000E+00
           1         110          30  0.0000000E+00
           1         110          32  0.0000000E+00
           1         110          34  0.0000000E+00
           1         110          34  0.0000000E+00
           1         110          34  0.0000000E+00
           1         110          35  0.0000000E+00
           1         110          36  0.0000000E+00
           1         111          29  0.0000000E+00
           1         111          30  0.0000000E+00
           1         111          30  0.0000000E+00
           1         111          30  0.0000000E+00
           1         111          32  0.0000000E+00
           1         111          33  0.0000000E+00
           1         111          34  0.0000000E+00
           1         111          34  0.0000000E+00
           1         111          34  0.0000000E+00
           1         112          29  0.0000000E+00
           1         112          31  0.0000000E+00
           1         112          31  0.0000000E+00
           1         112          31  0.0000000E+00
           1         112          32  0.0000000E+00
           1         112          32  0.0000000E+00
           1         112          33  0.0000000E+00
           1         113          25  0.0000000E+00
           1         113          28  0.0000000E+00
           1         113          29  0.0000000E+00
           1         114          25  0.0000000E+00
           1         114          25  0.0000000E+00
           1         114          27  0.0000000E+00
           1         114          28  0.0000000E+00
           1         114          28  0.0000000E+00
           1         115          25  0.0000000E+00
           1         115          26  0.0000000E+00
           1         115          26  0.0000000E+00
           1         115          26  0.0000000E+00
           1         115          26  0.0000000E+00
           1         115          27  0.0000000E+00
           1         115          28  0.0000000E+00
           1         116          24  0.0000000E+00
           1         116          25  0.0000000E+00
           1         116          26  0.0000000E+00
           1         117          23  0.0000000E+00
           1         117          24  0.0000000E+00
           1         117          24  0.0000000E+00
           1         117          24  0.0000000E+00
           1         117          25  0.0000000E+00
           1         118          22  0.0000000E+00
           1         118          23  0.0000000E+00
           1         118          25  0.0000000E+00
           1         118          26  0.0000000E+00
           1         118          27  0.0000000E+00
           1         118          28  0.0000000E+00
           1         118          29  0.0000000E+00
           1         119          19  0.0000000E+00
           1         119          21  0.0000000E+00
           1         119          22  0.0000000E+00
           1         120          19  0.0000000E+00
           1         120          21  0.0000000E+00
           1         121          19  0.0000000E+00
           1         121          20  0.0000000E+00
           1         121          21  0.0000000E+00
           1         122          18  0.0000000E+00
           1         122          19  0.0000000E+00
           1         122          19  0.0000000E+00
           1         122          19  0.0000000E+00
           1         122          20  0.0000000E+00
           1         123          16  0.0000000E+00
           1         123          16  0.0000000E+00
           1         123          17  0.0000000E+00
           1         123          18  0.0000000E+00
           1         124          14  0.0000000E+00
           1         124          15  0.0000000E+00
           1         124          16  0.0000000E+00
           1         125          11  0.0000000E+00
           1         125          12  0.0000000E+00
           1         125          13  0.0000000E+00
           1         125          13  0.0000000E+00
           1         125          13  0.0000000E+00
           1         126           9  0.0000000E+00
           1         126          10  0.0000000E+00
           1         126          11  0.0000000E+00
           1         127           7  0.0000000E+00
           1         127           8  0.0000000E+00
           1         127           9  0.0000000E+00
           1         128           6  0.0000000E+00
           1         128           7  0.0000000E+00
           1         129           4  0.0000000E+00
           1         129           5  0.0000000E+00
           1         129           6  0.0000000E+00
           1         130           2  0.0000000E+00
           1         130           3  0.0000000E+00
           1         130           4  0.0000000E+00
           1         131           1  0.0000000E+00
           1         131           2  0.0000000E+00
