                                  MODFLOW-NWT      
      U.S. GEOLOGICAL SURVEY MODULAR FINITE-DIFFERENCE GROUNDWATER-FLOW MODEL
                            VERSION 1.0.5 05/14/2012
                    BASED ON MODFLOW-2005 VERSION 1.9.01 05/01/2012

 LIST FILE: MODFLOW\mf_1000.lst
                         UNIT 5011

 OPENING MODFLOW\mf_1000.cbc
 FILE TYPE:DATA(BINARY)   UNIT 5009   STATUS:UNKNOWN
 FORMAT:BINARY                 ACCESS:SEQUENTIAL          

 OPENING MODFLOW\mf_1000.dis
 FILE TYPE:DIS   UNIT 5012   STATUS:OLD    
 FORMAT:FORMATTED              ACCESS:SEQUENTIAL          

 OPENING MODFLOW\mf_1000.bas
 FILE TYPE:BAS6   UNIT 5013   STATUS:OLD    
 FORMAT:FORMATTED              ACCESS:SEQUENTIAL          

 OPENING MODFLOW\mf_1000.oc
 FILE TYPE:OC   UNIT 5039   STATUS:OLD    
 FORMAT:FORMATTED              ACCESS:SEQUENTIAL          

 OPENING MODFLOW\mf_1000.fhd
 FILE TYPE:DATA   UNIT 5037   STATUS:UNKNOWN
 FORMAT:FORMATTED              ACCESS:SEQUENTIAL          

 OPENING MODFLOW\mf_1000.fdn
 FILE TYPE:DATA   UNIT 5038   STATUS:UNKNOWN
 FORMAT:FORMATTED              ACCESS:SEQUENTIAL          

 OPENING MODFLOW\mf_1000.nwt
 FILE TYPE:NWT   UNIT 5133   STATUS:OLD    
 FORMAT:FORMATTED              ACCESS:SEQUENTIAL          

 OPENING MODFLOW\mf_1000.upw
 FILE TYPE:UPW   UNIT 5134   STATUS:OLD    
 FORMAT:FORMATTED              ACCESS:SEQUENTIAL          

 OPENING MODFLOW\mf_1000.riv
 FILE TYPE:RIV   UNIT 5021   STATUS:OLD    
 FORMAT:FORMATTED              ACCESS:SEQUENTIAL          

 OPENING MODFLOW\mf_1000.rch
 FILE TYPE:RCH   UNIT 5024   STATUS:OLD    
 FORMAT:FORMATTED              ACCESS:SEQUENTIAL          
# EVT	5025	MODFLOW\mf_1000.evt                                                                                                                                                                                                                                                                              

 OPENING MODFLOW\mf_1000.zon
 FILE TYPE:ZONE   UNIT 5015   STATUS:OLD    
 FORMAT:FORMATTED              ACCESS:SEQUENTIAL          

 OPENING MODFLOW\mf_1000.pval
 FILE TYPE:PVAL   UNIT 5052   STATUS:OLD    
 FORMAT:FORMATTED              ACCESS:SEQUENTIAL          

 BAS -- BASIC PACKAGE, VERSION 7, 5/2/2005 INPUT READ FROM UNIT 5013
 
 MODFLOW was compiled using mixed precision
 Precision of REAL variables:           6
 Precision of DOUBLE PRECISION variables:          15

 DISCRETIZATION INPUT DATA READ FROM UNIT 5012
 # Discretization File created on 9/8/2020 by ModelMuse version 4.2.0.0.
 # Animas MODFLOW model steady state for linking with APEX model
 # developed by Seonggyu Park (Last modified: 08/27/2020)
 # Upper left corner: (-1076792.75079734, 1719150.01173572)
 # Lower left corner: (-1076792.75079734, 1588150.01173572)
 # Upper right corner: (-1000792.75079734, 1719150.01173572)
 # Lower right corner: (-1000792.75079734, 1588150.01173572)
 # Grid angle (in degrees counterclockwise): 0
    1 LAYERS       131 ROWS        76 COLUMNS
    1 STRESS PERIOD(S) IN SIMULATION
 MODEL TIME UNIT IS DAYS
 MODEL LENGTH UNIT IS METERS
  Confining bed flag for each layer:
   0

                     DELR =   1000.00    

                     DELC =   1000.00    



           TOP ELEVATION OF LAYER 1
 READING ON UNIT 5012 WITH FORMAT: (FREE)              

            1           2           3           4           5           6           7           8           9          10
           11          12          13          14          15          16          17          18          19          20
           21          22          23          24          25          26          27          28          29          30
           31          32          33          34          35          36          37          38          39          40
           41          42          43          44          45          46          47          48          49          50
           51          52          53          54          55          56          57          58          59          60
           61          62          63          64          65          66          67          68          69          70
           71          72          73          74          75          76
 ........................................................................................................................
   1  -3.0566E+04 -3.0010E+04 -2.8961E+04 -2.7350E+04 -2.5101E+04 -2.2133E+04 -1.8362E+04 -1.3694E+04  -8034.      -1845.    
        4237.       4655.       4942.       4868.       4802.       4747.       4704.       4671.       4647.       4632.    
        4624.       4623.       4628.       4638.       4652.       4670.       4690.       4712.       4736.       4759.    
        4782.       4803.       4822.       4838.       4850.       4857.       4859.       4854.       4842.       4822.    
        4793.       4754.       4705.       4644.       4571.       4485.       4385.       4271.       4141.       3995.    
        3831.       3650.       3457.       3655.       3915.       4052.       3997.       3848.       3643.       3419.    
        3212.       3060.       3000.       3069.       3304.       3637.       3605.       3415.       3580.       3592.    
        3647.       3689.       3856.       3776.       3880.       3832.    
   2  -2.8282E+04 -2.8295E+04 -2.7903E+04 -2.7040E+04 -2.5635E+04 -2.3609E+04 -2.0879E+04 -1.7358E+04 -1.2949E+04  -7551.    
       -1626.       4192.       4596.       4869.       4795.       4730.       4676.       4633.       4600.       4577.    
        4561.       4554.       4553.       4558.       4568.       4582.       4600.       4620.       4643.       4666.    
        4689.       4712.       4733.       4751.       4767.       4779.       4785.       4786.       4781.       4768.    
        4748.       4718.       4679.       4629.       4567.       4494.       4407.       4306.       4191.       4060.    
        3913.       3748.       3566.       3479.       3600.       3705.       3779.       3917.       3901.       3860.    
        3616.       3223.       3007.       3060.       3332.       3714.       3640.       3545.       3759.       3748.    
        3709.       3632.       3786.       3985.       3986.       3906.    
   3  -2.5441E+04 -2.5905E+04 -2.6051E+04 -2.5816E+04 -2.5132E+04 -2.3927E+04 -2.2121E+04 -1.9627E+04 -1.6354E+04 -1.2203E+04
       -7069.      -1407.       4147.       4538.       4797.       4723.       4658.       4604.       4562.       4529.    
        4506.       4491.       4484.       4483.       4488.       4498.       4513.       4530.       4551.       4573.    
        4596.       4619.       4641.       4662.       4681.       4696.       4707.       4713.       4714.       4708.    
        4695.       4674.       4643.       4603.       4553.       4491.       4416.       4329.       4227.       4111.    
        3979.       3831.       3665.       3482.       3285.       3524.       3750.       3985.       3839.       3518.    
        3235.       3096.       3152.       3275.       3317.       3813.       3751.       3645.       3874.       3738.    
        3730.       3600.       3804.       3877.       3814.       3852.    
   4  -2.2213E+04 -2.3007E+04 -2.3567E+04 -2.3836E+04 -2.3749E+04 -2.3238E+04 -2.2228E+04 -2.0637E+04 -1.8377E+04 -1.5351E+04
      -1.1458E+04  -6586.      -1188.       4102.       4479.       4724.       4650.       4586.       4533.       4491.    
        4459.       4436.       4421.       4414.       4413.       4418.       4429.       4443.       4461.       4481.    
        4503.       4526.       4549.       4571.       4592.       4610.       4625.       4636.       4641.       4642.    
        4635.       4622.       4600.       4569.       4528.       4477.       4414.       4339.       4250.       4148.    
        4031.       3898.       3734.       3611.       3426.       3709.       3704.       3931.       3812.       3462.    
        3217.       3311.       3375.       3536.       3461.       3823.       3869.       3777.       3722.       3703.    
        3575.       3525.       3494.       3755.       3875.       3734.    
   5  -1.8782E+04 -1.9782E+04 -2.0631E+04 -2.1275E+04 -2.1655E+04 -2.1707E+04 -2.1360E+04 -2.0539E+04 -1.9159E+04 -1.7129E+04
      -1.4349E+04 -1.0712E+04  -6103.      -969.2       4058.       4420.       4652.       4578.       4514.       4461.    
        4420.       4388.       4365.       4351.       4344.       4343.       4348.       4359.       4373.       4391.    
        4411.       4433.       4456.       4479.       4501.       4521.       4539.       4553.       4564.       4569.    
        4569.       4562.       4548.       4526.       4494.       4453.       4401.       4337.       4261.       4172.    
        4069.       3766.       3923.       3691.       3606.       3847.       3855.       3845.       3605.       3403.    
        3359.       3570.       3525.       3639.       3604.       3640.       3792.       3915.       3867.       3726.    
        3754.       3700.       3392.       3701.       3972.       3877.    
   6  -1.5343E+04 -1.6425E+04 -1.7434E+04 -1.8321E+04 -1.9034E+04 -1.9512E+04 -1.9691E+04 -1.9501E+04 -1.8861E+04 -1.7687E+04
      -1.5884E+04 -1.3348E+04  -9967.      -5621.      -750.3       4013.       4361.       4579.       4505.       4442.    
        4390.       4348.       4317.       4295.       4280.       4273.       4273.       4279.       4289.       4304.    
        4321.       4342.       4363.       4386.       4409.       4430.       4450.       4468.       4482.       4492.    
        4497.       4497.       4489.       4475.       4452.       4419.       4377.       4325.       4260.       4183.    
        3785.       3890.       3910.       3704.       3761.       3908.       3909.       3700.       3495.       3438.    
        3591.       3767.       3632.       3646.       3531.       3525.       3750.       3886.       3913.       3782.    
        3775.       3599.       3397.       3564.       3842.       3870.    
   7  -1.2103E+04 -1.3142E+04 -1.4181E+04 -1.5179E+04 -1.6086E+04 -1.6850E+04 -1.7413E+04 -1.7707E+04 -1.7662E+04 -1.7197E+04
      -1.6222E+04 -1.4642E+04 -1.2347E+04  -9222.      -5138.      -531.4       3968.       4303.       4507.       4433.    
        4370.       4318.       4277.       4246.       4224.       4210.       4203.       4203.       4209.       4219.    
        4234.       4252.       4272.       4294.       4316.       4339.       4360.       4380.       4397.       4411.    
        4421.       4425.       4424.       4416.       4401.       4378.       4345.       4302.       4248.       3916.    
        3938.       3876.       3912.       3811.       3873.       3931.       3800.       3542.       3366.       3512.    
        3687.       3539.       3520.       3415.       3371.       3540.       3859.       3755.       3815.       3829.    
        3796.       3693.       3333.       3518.       3876.       3939.    
   8   -9282.     -1.0151E+04 -1.1091E+04 -1.2064E+04 -1.3028E+04 -1.3936E+04 -1.4734E+04 -1.5364E+04 -1.5759E+04 -1.5848E+04
      -1.5547E+04 -1.4766E+04 -1.3403E+04 -1.1348E+04  -8477.      -4655.      -312.6       3923.       4244.       4434.    
        4361.       4298.       4247.       4206.       4175.       4154.       4140.       4133.       4133.       4139.    
        4150.       4164.       4182.       4202.       4224.       4246.       4268.       4290.       4309.       4326.    
        4340.       4349.       4353.       4352.       4343.       4328.       4303.       4270.       3851.       3579.    
        3671.       3802.       3939.       3912.       3951.       3749.       3475.       3301.       3404.       3590.    
        3779.       3550.       3277.       3319.       3325.       3542.       3811.       3810.       3625.       3562.    
        3740.       3606.       3310.       3793.       3820.       4025.    
   9   -7108.      -7684.      -8396.      -9211.     -1.0092E+04 -1.0998E+04 -1.1883E+04 -1.2694E+04 -1.3373E+04 -1.3854E+04
      -1.4062E+04 -1.3915E+04 -1.3319E+04 -1.2170E+04 -1.0350E+04  -7732.      -4173.      -93.70       3878.       4185.    
        4362.       4288.       4226.       4175.       4135.       4105.       4083.       4069.       4063.       4063.    
        4069.       4080.       4095.       4112.       4132.       4154.       4176.       4198.       4219.       4239.    
        4255.       4269.       4277.       4281.       4279.       4270.       4254.       3779.       3577.       3193.    
        3241.       3426.       3892.       3933.       3817.       3687.       3453.       3199.       3425.       3719.    
        3683.       3441.       3205.       3552.       3468.       3641.       3907.       3790.       3536.       3317.    
        3314.       3188.       3353.       3855.       4006.       3944.    
  10   -5822.      -5984.      -6341.      -6865.      -7525.      -8285.      -9106.      -9943.     -1.0743E+04 -1.1450E+04
      -1.1997E+04 -1.2310E+04 -1.2304E+04 -1.1884E+04 -1.0941E+04  -9354.      -6988.      -3690.       125.2       3833.    
        4126.       4289.       4216.       4154.       4104.       4064.       4034.       4012.       3999.       3993.    
        3994.       3999.       4010.       4025.       4043.       4063.       4084.       4106.       4128.       4149.    
        4168.       4184.       4197.       4206.       4209.       4207.       3712.       3536.       3351.       3231.    
        3179.       3312.       3611.       3797.       3784.       3730.       3516.       3174.       3458.       3661.    
        3534.       3223.       3329.       3716.       3567.       3767.       3714.       3531.       3467.       3638.    
        3476.       3078.       3519.       3879.       3948.       3777.    
  11   -5133.      -5158.      -5180.      -5285.      -5588.      -6060.      -6668.      -7374.      -8133.      -8897.    
       -9607.     -1.0199E+04 -1.0598E+04 -1.0719E+04 -1.0463E+04  -9719.      -8360.      -6243.      -3207.       344.0    
        3788.       4068.       4216.       4144.       4083.       4033.       3993.       3963.       3942.       3929.    
        3923.       3924.       3930.       3940.       3955.       3973.       3993.       4014.       4036.       4058.    
        4078.       4097.       4113.       4126.       4134.       3652.       3653.       3354.       3288.       3546.    
        3310.       3549.       3717.       3495.       3384.       3334.       3297.       3156.       3420.       3649.    
        3406.       3135.       3365.       3771.       3873.       3852.       3891.       3819.       3803.       3571.    
        3133.       3075.       3467.       3647.       3870.       3833.    
  12   -4482.      -4502.      -4519.      -4533.      -4545.      -4602.      -4850.      -5270.      -5826.      -6476.    
       -7172.      -7858.      -8471.      -8935.      -9164.      -9059.      -8505.      -7369.      -5499.      -2725.    
        562.9       3743.       4009.       4144.       4072.       4011.       3961.       3922.       3892.       3872.    
        3859.       3853.       3854.       3860.       3871.       3885.       3903.       3923.       3944.       3966.    
        3988.       4008.       4027.       4042.       3594.       3474.       3678.       3561.       3434.       3729.    
        3491.       3838.       3661.       3475.       3371.       3300.       3175.       3156.       3490.       3578.    
        3300.       3093.       3381.       3741.       3803.       3693.       3889.       3841.       3684.       3287.    
        2990.       3198.       3339.       3447.       3832.       3934.    
  13   -3865.      -3881.      -3893.      -3903.      -3909.      -3913.      -3914.      -3934.      -4127.      -4495.    
       -4999.      -5592.      -6222.      -6826.      -7329.      -7647.      -7677.      -7301.      -6381.      -4756.    
       -2242.       781.8       3698.       3950.       4071.       3999.       3939.       3890.       3851.       3822.    
        3801.       3788.       3783.       3784.       3790.       3801.       3816.       3833.       3853.       3874.    
        3896.       3917.       3938.       3538.       3216.       3362.       3517.       3808.       3659.       3930.    
        3866.       3787.       3710.       3697.       3539.       3567.       3213.       3154.       3585.       3589.    
        3232.       3044.       3283.       3672.       3619.       3548.       3735.       3531.       3313.       3021.    
        3188.       3219.       3640.       3578.       3790.       3897.    
  14   -3282.      -3294.      -3302.      -3307.      -3309.      -3308.      -3304.      -3297.      -3288.      -3281.    
       -3419.      -3734.      -4186.      -4722.      -5282.      -5795.      -6175.      -6321.      -6109.      -5397.    
       -4013.      -1759.       1001.       3653.       3891.       3999.       3927.       3867.       3818.       3780.    
        3751.       3731.       3718.       3713.       3714.       3720.       3731.       3746.       3764.       3783.    
        3804.       3826.       3485.       3212.       3118.       3274.       3503.       3844.       3907.       3846.    
        3760.       3701.       3561.       3774.       3565.       3385.       3233.       3022.       3241.       3404.    
        3373.       3034.       3177.       3474.       3240.       3270.       3305.       3129.       2988.       3271.    
        3527.       3519.       3483.       3780.       3755.       3846.    
  15   -2731.      -2740.      -2745.      -2746.      -2744.      -2739.      -2730.      -2719.      -2704.      -2687.    
       -2667.      -2644.      -2725.      -2988.      -3387.      -3864.      -4351.      -4763.      -4998.      -4933.    
       -4418.      -3271.      -1277.       1220.       3609.       3833.       3926.       3855.       3795.       3747.    
        3709.       3680.       3660.       3648.       3643.       3644.       3650.       3661.       3676.       3694.    
        3713.       3440.       3409.       3381.       3211.       3165.       3485.       3865.       3952.       3770.    
        3610.       3374.       3191.       3339.       3216.       3020.       3032.       3010.       2946.       3030.    
        3315.       3132.       2965.       3012.       2927.       2952.       3035.       3117.       3114.       3461.    
        3826.       3855.       3673.       3707.       3795.       3881.    
  16   -2212.      -2218.      -2219.      -2217.      -2212.      -2203.      -2190.      -2175.      -2156.      -2134.    
       -2109.      -2081.      -2051.      -2017.      -2046.      -2257.      -2603.      -3019.      -3425.      -3720.    
       -3779.      -3446.      -2530.      -794.1       1438.       3564.       3774.       3854.       3783.       3724.    
        3675.       3638.       3609.       3590.       3578.       3573.       3574.       3581.       3592.       3606.    
        3407.       3647.       3673.       3532.       3611.       3373.       3515.       3923.       3975.       3878.    
        3716.       3236.       3201.       3104.       3114.       3356.       3489.       3383.       3083.       2969.    
        2950.       2900.       2845.       2961.       3137.       3213.       3211.       3558.       3351.       3163.    
        3539.       3867.       3769.       3640.       3894.       3829.    
  17   -1724.      -1727.      -1726.      -1721.      -1712.      -1700.      -1684.      -1665.      -1642.      -1616.    
       -1586.      -1554.      -1519.      -1480.      -1439.      -1395.      -1382.      -1540.      -1833.      -2185.    
       -2500.      -2653.      -2484.      -1790.      -311.5       1657.       3519.       3715.       3781.       3711.    
        3652.       3604.       3567.       3539.       3519.       3507.       3503.       3504.       3511.       3395.    
        3536.       3506.       3758.       3895.       3917.       3680.       3677.       3856.       3807.       3589.    
        3338.       3285.       3580.       3474.       3428.       3629.       3630.       3264.       3384.       3308.    
        3035.       2834.       3006.       3311.       3456.       3507.       3277.       3713.       3722.       3222.    
        3493.       3828.       3804.       3672.       3872.       3829.    
  18   -1264.      -1265.      -1262.      -1255.      -1244.      -1229.      -1210.      -1187.      -1161.      -1131.    
       -1098.      -1062.      -1022.      -978.9      -933.0      -884.2      -832.5      -778.1      -733.2      -838.2    
       -1077.      -1361.      -1568.      -1537.      -1052.       171.2       1876.       3474.       3657.       3708.    
        3638.       3580.       3533.       3496.       3468.       3449.       3437.       3433.       3410.       3348.    
        3334.       3408.       3511.       3722.       3978.       3849.       3803.       3666.       3517.       3326.    
        3445.       3578.       3632.       3593.       3734.       3714.       3461.       3534.       3742.       3599.    
        3321.       2879.       3231.       3687.       3771.       3735.       3634.       3842.       3769.       3298.    
        3676.       3853.       3824.       3818.       3757.       3750.    
  19   -833.2      -832.9      -828.1      -819.0      -805.7      -788.3      -766.8      -741.5      -712.2      -679.3    
       -642.7      -602.6      -559.0      -512.1      -461.9      -408.6      -352.2      -292.9      -230.7      -165.8    
       -99.54      -150.7      -335.4      -541.6      -610.8      -317.6       653.8       2095.       3429.       3598.    
        3636.       3566.       3508.       3461.       3425.       3397.       3378.       3466.       3244.       3369.    
        3347.       3440.       3607.       3857.       3836.       3618.       3820.       3771.       3615.       3460.    
        3765.       3846.       3724.       3669.       3778.       3606.       3419.       3586.       3843.       3624.    
        3263.       2953.       3314.       3594.       3738.       3898.       3830.       3883.       3674.       3325.    
        3785.       3828.       3898.       3840.       3800.       3593.    
  20   -429.4      -428.1      -422.1      -411.6      -396.7      -377.4      -353.9      -326.2      -294.5      -258.9    
       -219.4      -176.1      -129.2      -78.67      -24.72       32.60       93.19       157.0       223.8       293.6    
        366.3       441.8       519.9       522.1       393.7       280.7       411.3       1136.       2314.       3384.    
        3539.       3563.       3494.       3437.       3390.       3354.       3318.       3331.       3488.       3319.    
        3315.       3394.       3532.       3758.       3905.       3493.       3832.       3908.       3669.       3606.    
        3877.       3633.       3570.       3562.       3642.       3673.       3519.       3731.       3820.       3671.    
        3237.       2957.       3186.       3501.       3699.       3840.       3887.       3789.       3546.       3420.    
        3776.       3851.       3731.       3786.       3808.       3751.    
  21   -51.65      -49.84      -43.18      -31.77      -15.70       4.929       30.02       59.46       93.18       131.1    
        173.0       218.9       268.7       322.3       379.6       440.4       504.8       572.5       643.5       717.7    
        795.0       875.3       958.5       1044.       1133.       1180.       1112.       1130.       1619.       2533.    
        3339.       3480.       3491.       3422.       3365.       3317.       3427.       3488.       3423.       3276.    
        3310.       3446.       3579.       3807.       3693.       3469.       3669.       3739.       3718.       3675.    
        3562.       3391.       3266.       3316.       3442.       3409.       3567.       3747.       3620.       3377.    
        3164.       2948.       3264.       3420.       3527.       3776.       3916.       3746.       3644.       3513.    
        3707.       3783.       3659.       3700.       3879.       3884.    
  22    301.0       302.8       309.7       321.6       338.3       359.8       386.0       416.7       452.0       491.6    
        535.5       583.6       635.8       692.0       752.1       816.0       883.6       954.8       1029.       1108.    
        1189.       1274.       1361.       1452.       1546.       1642.       1742.       1824.       1826.       2102.    
        2752.       3294.       3422.       3418.       3311.       3228.       3204.       3460.       3483.       3317.    
        3368.       3482.       3619.       3712.       3534.       3327.       3511.       3661.       3739.       3693.    
        3651.       3535.       3312.       3197.       3335.       3333.       3508.       3526.       3459.       3286.    
        3151.       2946.       3374.       3544.       3674.       3745.       3925.       3839.       3707.       3680.    
        3722.       3682.       3593.       3512.       3664.       3859.    
  23    629.7       631.0       637.7       649.5       666.4       688.3       715.1       746.6       782.9       823.8    
        869.2       919.0       973.1       1031.       1094.       1160.       1231.       1305.       1383.       1464.    
        1549.       1638.       1730.       1825.       1923.       2024.       2128.       2235.       2345.       2453.    
        2584.       2971.       3249.       3427.       3457.       3338.       3293.       3344.       3451.       3350.    
        3362.       3442.       3597.       3490.       3411.       3175.       3556.       3701.       3592.       3664.    
        3625.       3655.       3405.       3144.       3238.       3393.       3391.       3353.       3285.       3222.    
        3212.       2936.       3349.       3571.       3649.       3748.       3841.       3873.       3740.       3761.    
        3845.       3774.       3623.       3526.       3514.       3792.    
  24    935.4       935.8       941.7       953.0       969.6       991.4       1018.       1050.       1087.       1129.    
        1175.       1226.       1282.       1342.       1406.       1474.       1547.       1624.       1704.       1789.    
        1877.       1969.       2065.       2163.       2266.       2371.       2480.       2591.       2706.       2824.    
        2944.       3067.       3126.       3249.       3482.       3451.       3430.       3486.       3513.       3465.    
        3425.       3476.       3608.       3507.       3203.       3164.       3371.       3403.       3446.       3662.    
        3477.       3548.       3352.       3111.       3254.       3272.       3257.       3310.       3272.       3151.    
        3099.       2907.       3214.       3438.       3632.       3717.       3796.       3819.       3728.       3788.    
        3835.       3794.       3706.       3572.       3517.       3716.    
  25    1219.       1218.       1223.       1233.       1249.       1270.       1297.       1329.       1366.       1408.    
        1454.       1506.       1563.       1624.       1689.       1760.       1834.       1913.       1996.       2083.    
        2174.       2268.       2367.       2469.       2575.       2684.       2797.       2913.       3032.       3154.    
        3279.       3440.       3442.       3304.       3468.       3514.       3534.       3590.       3446.       3321.    
        3296.       3504.       3485.       3357.       3160.       3075.       3140.       3248.       3415.       3580.    
        3440.       3341.       3232.       3052.       3128.       3194.       3262.       3308.       3252.       3274.    
        3263.       2853.       3119.       3450.       3764.       3759.       3819.       3715.       3597.       3691.    
        3815.       3825.       3730.       3601.       3689.       3640.    
  26    1482.       1479.       1482.       1491.       1506.       1526.       1552.       1583.       1619.       1661.    
        1708.       1760.       1817.       1879.       1945.       2017.       2093.       2173.       2257.       2346.    
        2439.       2537.       2638.       2743.       2852.       2964.       3080.       3200.       3323.       3449.    
        3579.       3469.       3672.       3453.       3417.       3249.       3338.       3337.       3160.       3168.    
        3367.       3532.       3520.       3302.       3136.       2969.       3246.       3471.       3505.       3486.    
        3401.       3303.       3117.       3000.       3150.       3267.       3378.       3434.       3464.       3564.    
        3429.       2881.       2890.       3054.       3285.       3348.       3512.       3417.       3364.       3648.    
        3798.       3826.       3724.       3721.       3699.       3564.    
  27    1726.       1720.       1721.       1728.       1741.       1760.       1784.       1814.       1850.       1891.    
        1937.       1989.       2046.       2108.       2175.       2247.       2324.       2405.       2491.       2581.    
        2676.       2775.       2879.       2986.       3097.       3213.       3332.       3455.       3581.       3711.    
        3432.       3536.       3674.       3593.       3366.       3139.       3171.       3167.       3043.       3193.    
        3281.       3546.       3546.       3438.       3164.       2965.       3252.       3602.       3666.       3554.    
        3394.       3175.       2991.       2989.       3210.       3379.       3524.       3620.       3716.       3637.    
        3210.       2822.       2970.       3143.       3042.       3053.       3145.       3315.       3372.       3483.    
        3753.       3815.       3798.       3799.       3636.       3495.    
  28    1951.       1942.       1940.       1945.       1955.       1972.       1995.       2023.       2057.       2097.    
        2143.       2194.       2250.       2312.       2379.       2451.       2528.       2610.       2697.       2788.    
        2884.       2985.       3090.       3199.       3313.       3430.       3552.       3678.       3807.       3940.    
        3386.       3547.       3469.       3444.       3356.       3101.       3020.       2997.       2999.       3102.    
        3294.       3570.       3552.       3310.       3114.       2922.       3162.       3340.       3437.       3339.    
        3211.       3190.       2996.       3032.       3282.       3451.       3592.       3737.       3768.       3496.    
        3064.       2870.       3267.       3425.       3551.       3318.       3530.       3658.       3751.       3460.    
        3665.       3785.       3784.       3619.       3472.       3503.    
  29    2158.       2146.       2141.       2143.       2150.       2165.       2185.       2211.       2244.       2282.    
        2326.       2376.       2432.       2493.       2559.       2631.       2708.       2790.       2877.       2969.    
        3066.       3167.       3273.       3384.       3499.       3619.       3742.       3870.       4002.       3304.    
        3362.       3239.       3269.       3268.       3258.       3152.       3000.       2916.       3099.       3187.    
        3305.       3568.       3659.       3466.       3131.       2922.       2943.       3119.       3202.       3046.    
        3158.       3339.       2991.       2990.       3252.       3450.       3593.       3708.       3741.       3415.    
        2992.       2936.       3550.       3616.       3820.       3598.       3686.       3814.       3854.       3753.    
        3930.       3907.       3831.       3677.       3587.       3619.    
  30    2348.       2333.       2324.       2322.       2327.       2338.       2356.       2380.       2410.       2446.    
        2488.       2536.       2590.       2650.       2716.       2786.       2863.       2944.       3031.       3123.    
        3221.       3323.       3429.       3541.       3657.       3778.       3904.       4033.       4167.       3137.    
        2963.       3045.       3096.       3125.       3147.       3049.       2937.       2948.       3095.       3177.    
        3225.       3401.       3459.       3392.       3257.       3090.       2795.       2983.       2954.       2908.    
        3149.       3384.       2999.       3074.       3434.       3447.       3593.       3678.       3417.       3180.    
        2875.       2882.       3470.       3847.       3908.       3911.       3742.       3800.       3880.       3907.    
        3913.       3769.       3802.       3810.       3708.       3742.    
  31    2524.       2504.       2491.       2485.       2486.       2494.       2508.       2529.       2557.       2590.    
        2630.       2676.       2728.       2786.       2850.       2920.       2995.       3076.       3162.       3254.    
        3350.       3452.       3560.       3672.       3789.       3910.       4037.       4168.       3176.       2857.    
        2860.       2922.       3022.       3084.       3130.       2974.       2866.       2911.       3075.       3052.    
        3098.       3230.       3252.       3362.       3296.       3127.       2811.       2778.       2820.       2811.    
        3009.       3206.       2899.       3336.       3733.       3595.       3610.       3684.       3306.       2777.    
        2742.       2995.       3338.       3512.       3542.       3709.       3869.       3934.       3869.       3720.    
        3790.       3617.       3640.       3750.       3879.       3824.    
  32    2684.       2660.       2643.       2632.       2629.       2633.       2644.       2661.       2685.       2716.    
        2753.       2796.       2846.       2901.       2963.       3031.       3105.       3184.       3269.       3360.    
        3456.       3558.       3665.       3777.       3894.       4016.       4143.       4275.       2985.       2943.    
        2984.       3019.       3178.       3151.       3153.       3043.       2863.       2846.       2967.       2953.    
        3074.       3083.       3170.       3234.       3181.       3192.       3008.       2693.       2703.       2807.    
        2914.       2933.       2938.       3461.       3813.       3632.       3379.       3400.       2861.       2762.    
        3063.       3255.       3333.       3408.       3499.       3416.       3506.       3616.       3824.       3788.    
        3504.       3437.       3353.       3518.       3994.       3869.    
  33    2832.       2802.       2780.       2765.       2757.       2756.       2763.       2776.       2796.       2823.    
        2857.       2897.       2944.       2997.       3057.       3122.       3194.       3271.       3355.       3444.    
        3539.       3640.       3746.       3858.       3974.       4097.       4224.       3044.       3085.       3093.    
        3115.       3232.       3245.       3089.       3053.       2987.       2848.       2765.       2801.       2836.    
        2904.       2987.       3099.       3043.       3029.       3062.       3072.       2709.       2642.       2718.    
        2864.       2865.       3115.       3603.       3709.       3725.       3265.       3025.       2698.       2888.    
        3149.       3227.       3367.       3756.       3805.       3747.       3791.       3840.       3894.       3840.    
        3790.       3491.       3258.       3482.       3843.       3879.    
  34    2967.       2932.       2904.       2883.       2871.       2865.       2867.       2876.       2892.       2915.    
        2945.       2981.       3025.       3074.       3131.       3194.       3263.       3338.       3420.       3507.    
        3601.       3700.       3805.       3915.       4031.       4153.       4279.       2918.       2981.       3208.    
        3253.       3211.       3087.       3086.       2944.       2941.       2753.       2790.       2859.       2865.    
        2868.       2884.       2879.       2895.       2927.       2980.       2940.       2668.       2572.       2671.    
        2859.       2816.       3221.       3447.       3712.       3578.       3103.       2655.       2800.       3153.    
        3539.       3628.       3421.       3399.       3719.       3904.       3937.       3875.       3694.       3603.    
        3813.       3642.       3348.       3702.       3828.       3857.    
  35    3000.       3025.       3016.       2990.       2971.       2960.       2957.       2961.       2972.       2990.    
        3016.       3049.       3088.       3134.       3187.       3247.       3313.       3386.       3465.       3550.    
        3641.       3738.       3841.       3950.       4065.       4186.       4312.       3022.       3151.       3212.    
        3178.       3123.       2997.       3012.       2919.       2835.       2763.       2950.       3007.       3039.    
        3056.       3063.       3086.       3127.       3102.       3002.       2777.       2665.       2511.       2628.    
        2689.       2769.       3118.       3464.       3589.       3412.       2998.       2590.       2890.       3286.    
        3464.       3491.       3828.       3626.       3390.       3594.       3893.       3905.       3811.       3577.    
        3430.       3625.       3297.       4042.       3786.       3807.    
  36    2863.       2943.       3008.       3049.       3058.       3043.       3034.       3032.       3038.       3052.    
        3072.       3101.       3136.       3178.       3227.       3283.       3345.       3415.       3491.       3573.    
        3662.       3756.       3857.       3965.       4078.       4196.       3215.       3142.       3209.       3097.    
        3016.       3009.       3001.       2882.       2895.       2773.       2760.       2849.       2939.       3008.    
        3137.       3195.       3162.       3203.       3203.       3135.       2773.       2747.       2591.       2883.    
        2978.       3046.       3127.       3077.       3096.       3047.       2655.       2642.       2967.       3430.    
        3745.       3870.       3680.       3810.       3626.       3657.       3823.       3719.       3694.       3578.    
        3517.       3672.       3185.       3890.       3719.       3732.    
  37    2668.       2759.       2850.       2936.       3010.       3066.       3094.       3091.       3092.       3100.    
        3115.       3138.       3168.       3206.       3251.       3302.       3361.       3427.       3499.       3578.    
        3664.       3756.       3854.       3959.       4069.       4186.       3139.       3246.       3209.       3030.    
        2922.       2907.       2892.       2833.       2781.       2721.       2813.       2943.       3019.       3068.    
        3164.       3156.       3128.       3124.       3168.       2955.       2711.       2760.       2605.       2876.    
        3003.       2821.       2578.       2570.       2609.       2618.       2608.       2705.       2990.       3362.    
        3630.       3817.       3865.       3994.       3885.       3947.       3816.       3633.       3395.       3213.    
        3456.       3577.       3192.       3631.       3629.       3633.    
  38    2530.       2595.       2669.       2752.       2840.       2928.       3010.       3078.       3123.       3135.    
        3145.       3163.       3188.       3220.       3260.       3307.       3361.       3423.       3491.       3566.    
        3648.       3737.       3832.       3934.       4042.       3099.       3134.       3237.       3217.       3107.    
        3019.       2959.       2816.       2814.       2756.       2731.       2883.       2948.       2945.       2997.    
        3115.       3235.       3188.       3106.       2976.       2730.       2694.       2764.       2657.       2546.    
        2568.       2477.       2698.       2777.       2804.       2839.       3038.       3086.       2903.       3126.    
        3475.       3606.       3899.       3963.       3791.       4052.       3965.       3832.       3715.       2956.    
        3214.       3348.       3529.       3533.       3521.       3515.    
  39    2443.       2502.       2564.       2627.       2691.       2760.       2839.       2924.       3009.       3085.    
        3145.       3175.       3194.       3221.       3255.       3297.       3347.       3403.       3467.       3538.    
        3616.       3701.       3792.       3891.       3996.       3101.       3184.       3284.       3205.       3000.    
        2972.       2946.       2847.       2730.       2673.       2794.       2844.       2883.       3002.       3108.    
        3206.       3194.       3186.       3198.       2936.       2684.       2637.       2637.       2613.       2436.    
        2626.       2831.       3122.       3287.       3415.       3358.       3470.       3443.       3267.       3063.    
        3321.       3620.       3699.       3501.       3596.       3993.       3840.       3880.       3761.       2806.    
        3049.       3101.       3939.       3419.       3397.       3380.    
  40    2369.       2424.       2481.       2539.       2599.       2660.       2723.       2787.       2854.       2928.    
        3009.       3091.       3162.       3209.       3238.       3275.       3319.       3370.       3429.       3495.    
        3568.       3649.       3736.       3831.       2993.       3027.       3123.       3263.       3152.       2988.    
        2877.       2877.       2830.       2719.       2647.       2740.       2839.       2983.       3072.       3068.    
        3172.       3174.       3123.       3174.       2903.       2652.       2582.       2575.       2474.       2619.    
        2967.       3090.       3208.       3366.       3497.       3612.       3747.       3660.       3514.       3370.    
        3266.       3319.       3373.       3528.       3728.       3863.       3879.       3542.       3820.       2759.    
        3035.       2884.       3440.       3293.       3259.       3232.    
  41    2306.       2357.       2410.       2464.       2519.       2576.       2635.       2694.       2756.       2818.    
        2883.       2949.       3019.       3097.       3174.       3237.       3278.       3324.       3377.       3438.    
        3507.       3582.       3665.       3755.       3180.       3129.       3165.       3280.       3105.       2920.    
        2948.       2857.       2804.       2674.       2693.       2850.       2940.       3003.       2992.       2974.    
        3100.       3132.       3102.       3149.       2852.       2618.       2544.       2567.       2515.       2536.    
        2940.       3202.       3338.       3357.       3463.       3596.       3698.       3776.       3614.       3596.    
        3676.       3750.       3730.       3848.       3784.       3678.       3873.       3552.       3302.       2812.    
        2976.       2908.       3210.       3157.       3111.       3072.    
  42    2253.       2301.       2350.       2400.       2452.       2505.       2559.       2614.       2671.       2730.    
        2789.       2851.       2914.       2978.       3044.       3112.       3186.       3259.       3313.       3369.    
        3431.       3502.       3580.       3215.       3164.       3327.       3300.       3237.       3097.       3028.    
        2905.       2824.       2752.       2678.       2690.       2768.       2892.       2893.       2899.       2942.    
        3032.       3028.       3041.       3108.       2750.       2583.       2554.       2586.       2360.       2589.    
        3046.       3244.       3375.       3434.       3537.       3567.       3666.       3784.       3746.       3701.    
        3714.       3762.       3764.       3769.       3825.       3573.       3565.       3605.       3247.       2962.    
        2942.       3411.       3081.       3015.       2957.       2905.    
  43    2209.       2254.       2299.       2346.       2394.       2444.       2494.       2546.       2599.       2653.    
        2709.       2766.       2824.       2884.       2945.       3008.       3073.       3139.       3207.       3277.    
        3344.       3409.       3481.       3345.       3215.       3369.       3416.       3335.       3302.       3098.    
        2984.       2899.       2790.       2661.       2593.       2830.       2884.       2788.       2855.       2990.    
        2967.       2975.       3073.       3024.       2628.       2553.       2555.       2619.       2391.       2596.    
        2885.       3057.       3183.       3366.       3463.       3538.       3640.       3673.       3743.       3654.    
        3600.       3680.       3620.       3771.       3849.       3822.       3511.       3270.       3164.       3174.    
        2980.       3605.       2950.       2870.       2797.       2732.    
  44    2173.       2214.       2257.       2301.       2346.       2392.       2439.       2487.       2537.       2587.    
        2639.       2692.       2747.       2803.       2860.       2918.       2978.       3040.       3103.       3167.    
        3233.       3301.       3370.       3444.       3353.       3384.       3448.       3327.       3171.       3112.    
        2959.       2914.       2765.       2678.       2550.       2752.       2718.       2835.       2914.       2985.    
        2887.       2976.       3047.       3029.       2591.       2518.       2566.       2619.       2384.       2574.    
        3041.       3205.       3272.       3364.       3468.       3543.       3519.       3621.       3646.       3660.    
        3507.       3624.       3553.       3715.       3717.       3790.       3648.       3489.       3653.       3359.    
        3114.       3291.       2818.       2724.       2637.       2557.    
  45    2143.       2182.       2222.       2263.       2305.       2348.       2392.       2437.       2484.       2531.    
        2579.       2629.       2680.       2732.       2785.       2840.       2896.       2953.       3012.       3072.    
        3133.       3196.       3206.       3363.       3438.       3415.       3358.       3096.       2954.       2974.    
        2977.       2906.       2872.       2770.       2511.       2634.       2777.       2873.       2894.       2997.    
        2843.       2862.       2960.       2990.       2616.       2489.       2536.       2560.       2377.       2739.    
        3022.       3170.       3295.       3438.       3397.       3388.       3488.       3608.       3562.       3598.    
        3439.       3583.       3505.       3630.       3627.       3684.       3707.       3827.       3717.       3483.    
        3262.       2807.       2690.       2580.       2478.       2384.    
  46    2119.       2155.       2193.       2232.       2271.       2311.       2353.       2395.       2438.       2483.    
        2528.       2575.       2622.       2671.       2721.       2772.       2824.       2878.       2933.       2989.    
        3046.       3105.       3203.       3273.       3409.       3495.       3319.       3113.       2889.       2801.    
        2865.       2857.       2796.       2784.       2494.       2599.       2749.       2797.       2895.       2890.    
        2793.       2911.       3032.       2986.       2604.       2493.       2489.       2463.       2400.       2864.    
        2987.       3094.       3236.       3322.       3214.       3282.       3500.       3569.       3473.       3484.    
        3397.       3581.       3466.       3550.       3565.       3589.       3776.       3860.       3559.       3456.    
        3139.       2700.       2567.       2442.       2324.       2214.    
  47    2100.       2134.       2170.       2206.       2243.       2281.       2320.       2359.       2400.       2442.    
        2484.       2528.       2573.       2619.       2665.       2713.       2762.       2812.       2864.       2916.    
        2970.       3025.       2902.       3120.       3312.       3543.       3361.       3066.       2888.       2794.    
        2698.       2649.       2603.       2597.       2500.       2432.       2561.       2718.       2832.       2680.    
        2724.       2901.       2989.       2922.       2517.       2449.       2419.       2399.       2388.       2700.    
        2888.       3065.       3132.       3175.       3123.       3283.       3461.       3516.       3396.       3359.    
        3523.       3553.       3360.       3344.       3427.       3608.       3736.       3845.       3537.       3266.    
        3076.       2604.       2454.       2312.       2177.       2051.    
  48    2085.       2118.       2151.       2185.       2220.       2256.       2292.       2329.       2368.       2407.    
        2447.       2488.       2530.       2573.       2617.       2662.       2708.       2755.       2803.       2853.    
        2903.       2988.       3053.       3071.       3400.       3533.       3334.       3145.       2934.       2835.    
        2696.       2669.       2670.       2595.       2615.       2569.       2411.       2608.       2636.       2590.    
        2806.       2868.       2964.       2827.       2438.       2391.       2381.       2323.       2488.       2666.    
        2787.       2892.       2976.       3007.       3175.       3314.       3451.       3384.       3289.       3425.    
        3549.       3423.       3282.       3435.       3629.       3632.       3706.       3613.       3389.       3022.    
        2777.       2520.       2353.       2193.       2041.       1897.    
  49    2075.       2105.       2136.       2168.       2201.       2235.       2269.       2305.       2341.       2378.    
        2415.       2454.       2494.       2534.       2576.       2618.       2661.       2706.       2751.       2797.    
        2845.       3015.       3184.       3075.       3361.       3568.       3374.       3243.       3038.       2899.    
        2703.       2839.       2725.       2746.       2790.       2622.       2432.       2416.       2456.       2557.    
        2796.       2879.       2946.       2834.       2433.       2317.       2309.       2306.       2481.       2760.    
        2947.       2964.       3057.       3116.       3227.       3424.       3406.       3244.       3244.       3283.    
        3283.       3307.       3534.       3658.       3587.       3433.       3548.       3273.       3205.       2846.    
        2647.       2452.       2266.       2088.       1918.       1757.    
  50    2067.       2096.       2125.       2156.       2187.       2218.       2251.       2284.       2318.       2353.    
        2389.       2425.       2463.       2501.       2540.       2580.       2621.       2662.       2705.       2749.    
        2793.       3025.       3427.       3134.       3419.       3491.       3186.       3011.       2890.       2814.    
        2855.       2885.       2822.       2792.       2733.       2672.       2643.       2406.       2347.       2581.    
        2708.       2877.       2890.       2764.       2369.       2265.       2255.       2331.       2518.       2758.    
        2948.       3115.       3210.       3296.       3405.       3440.       3303.       3140.       3046.       3061.    
        3306.       3489.       3605.       3704.       3569.       3440.       3209.       3205.       2959.       2877.    
        2606.       2410.       2211.       2008.       1812.       1632.    
  51    2062.       2090.       2117.       2146.       2175.       2205.       2236.       2267.       2300.       2332.    
        2366.       2401.       2436.       2472.       2509.       2547.       2585.       2625.       2665.       2706.    
        2749.       2954.       3368.       3200.       3499.       3558.       3383.       3196.       3151.       2995.    
        3007.       2978.       2797.       2699.       2619.       2560.       2524.       2531.       2375.       2404.    
        2593.       2726.       2817.       2667.       2298.       2228.       2242.       2350.       2552.       2749.    
        2881.       2980.       3136.       3295.       3411.       3310.       3157.       3011.       2926.       3315.    
        3487.       3554.       3638.       3659.       3470.       3363.       3277.       3136.       2917.       2730.    
        2564.       2372.       2176.       1978.       1777.       1573.    
  52    2060.       2086.       2112.       2139.       2167.       2195.       2224.       2254.       2284.       2315.    
        2347.       2380.       2413.       2448.       2483.       2518.       2555.       2592.       2630.       2669.    
        2803.       2974.       3353.       3362.       3585.       3521.       3500.       3404.       3414.       3255.    
        3064.       2890.       2814.       2810.       2725.       2650.       2713.       2617.       2492.       2307.    
        2452.       2605.       2781.       2559.       2291.       2180.       2215.       2336.       2535.       2758.    
        2909.       3018.       3146.       3326.       3374.       3196.       2985.       2832.       3152.       3297.    
        3423.       3534.       3643.       3539.       3440.       3157.       3210.       2918.       2966.       2705.    
        2520.       2332.       2141.       1947.       1749.       1549.    
  53    2060.       2084.       2109.       2135.       2161.       2188.       2215.       2243.       2272.       2302.    
        2332.       2363.       2394.       2427.       2460.       2494.       2528.       2564.       2600.       2637.    
        2876.       2934.       3487.       3650.       3489.       3301.       3477.       3591.       3398.       3133.    
        3073.       3047.       3025.       2875.       2802.       2801.       2806.       2728.       2542.       2318.    
        2369.       2583.       2759.       2622.       2319.       2125.       2129.       2305.       2510.       2721.    
        2953.       3161.       3260.       3302.       3236.       3021.       2807.       2800.       3194.       3333.    
        3435.       3560.       3579.       3535.       3323.       3174.       2936.       2914.       2754.       2657.    
        2476.       2291.       2104.       1914.       1720.       1524.    
  54    2061.       2084.       2108.       2132.       2157.       2182.       2208.       2235.       2262.       2290.    
        2319.       2348.       2378.       2409.       2440.       2472.       2505.       2539.       2573.       2608.    
        2923.       3264.       3363.       3393.       3201.       3433.       3558.       3392.       3135.       3065.    
        2959.       3125.       3162.       3045.       2934.       2863.       2775.       2714.       2626.       2379.    
        2299.       2540.       2681.       2574.       2274.       2076.       2146.       2341.       2529.       2732.    
        3072.       3154.       3214.       3219.       3041.       2793.       2675.       2890.       3186.       3315.    
        3453.       3515.       3325.       3368.       3137.       3089.       2850.       2869.       2782.       2607.    
        2430.       2250.       2066.       1880.       1690.       1498.    
  55    2065.       2086.       2108.       2131.       2155.       2179.       2203.       2229.       2255.       2281.    
        2308.       2336.       2365.       2394.       2424.       2454.       2485.       2517.       2550.       2607.    
        2956.       3139.       3231.       3090.       3282.       3597.       3653.       3299.       2960.       2903.    
        2875.       3091.       3191.       3070.       2869.       2761.       2681.       2600.       2527.       2501.    
        2231.       2408.       2668.       2515.       2208.       2052.       2138.       2356.       2557.       2834.    
        2966.       3049.       3200.       3107.       2935.       2648.       2662.       2914.       3121.       3286.    
        3472.       3458.       3308.       3078.       2945.       2821.       2904.       2737.       2728.       2557.    
        2383.       2207.       2027.       1845.       1659.       1471.    
  56    2069.       2089.       2110.       2132.       2154.       2177.       2200.       2224.       2249.       2274.    
        2300.       2326.       2353.       2381.       2409.       2438.       2468.       2498.       2529.       2707.    
        2975.       3193.       3122.       3016.       3171.       3386.       3564.       3201.       3008.       2765.    
        2902.       3057.       3129.       3103.       2955.       2742.       2632.       2535.       2471.       2381.    
        2206.       2360.       2594.       2306.       2084.       2041.       2103.       2373.       2690.       2777.    
        2848.       3010.       3159.       3115.       2810.       2566.       2690.       2927.       3128.       3384.    
        3404.       3494.       3424.       3237.       2996.       2861.       2851.       2791.       2673.       2506.    
        2336.       2163.       1988.       1809.       1627.       1443.    
  57    2074.       2094.       2114.       2134.       2155.       2177.       2199.       2221.       2245.       2269.    
        2293.       2318.       2344.       2370.       2397.       2425.       2453.       2482.       2511.       2781.    
        2889.       2917.       2935.       3152.       3273.       3358.       3416.       3235.       2973.       2733.    
        2819.       2908.       3013.       2986.       3144.       2902.       2687.       2605.       2585.       2477.    
        2191.       2185.       2285.       2086.       2033.       2037.       2169.       2385.       2554.       2626.    
        2781.       2978.       3133.       3076.       2819.       2537.       2701.       2969.       3154.       3282.    
        3243.       3382.       3456.       3204.       2887.       2878.       2689.       2779.       2618.       2455.    
        2288.       2119.       1947.       1772.       1594.       1413.    
  58    2081.       2099.       2118.       2137.       2157.       2177.       2198.       2220.       2242.       2265.    
        2288.       2312.       2336.       2361.       2387.       2413.       2440.       2467.       2496.       2824.    
        2771.       2872.       3168.       3185.       3448.       3151.       3058.       3340.       3162.       2895.    
        2663.       2787.       2848.       2894.       3031.       2920.       2820.       2624.       2490.       2405.    
        2195.       2048.       2034.       2021.       2026.       2146.       2425.       2540.       2737.       2798.    
        2874.       3007.       3124.       3063.       2818.       2545.       2674.       2913.       3071.       3078.    
        3129.       3181.       3236.       3059.       2904.       2777.       2739.       2719.       2562.       2403.    
        2240.       2074.       1906.       1735.       1561.       1384.    
  59    2088.       2105.       2123.       2141.       2160.       2179.       2199.       2219.       2240.       2262.    
        2284.       2306.       2330.       2354.       2378.       2403.       2428.       2455.       2552.       2843.    
        2861.       3109.       3396.       3457.       3601.       3288.       2896.       3244.       3205.       2977.    
        2720.       2604.       2688.       2831.       2995.       2811.       2863.       2713.       2559.       2345.    
        2119.       2018.       2013.       2022.       2146.       2445.       2649.       2696.       2769.       2976.    
        2993.       3100.       3069.       2930.       2828.       2590.       2579.       2841.       2862.       2886.    
        2931.       2895.       2966.       2889.       2839.       2621.       2810.       2660.       2507.       2350.    
        2191.       2029.       1865.       1697.       1526.       1353.    
  60    2095.       2111.       2128.       2145.       2163.       2181.       2200.       2219.       2239.       2260.    
        2281.       2302.       2324.       2347.       2370.       2394.       2418.       2443.       2645.       2839.    
        2890.       3084.       3402.       3537.       3403.       3199.       2815.       2967.       2939.       2963.    
        2780.       2563.       2655.       2872.       3009.       2730.       2830.       2609.       2427.       2265.    
        2058.       2008.       2009.       2060.       2292.       2405.       2597.       2743.       2840.       2999.    
        3115.       3088.       3017.       2915.       2784.       2630.       2505.       2676.       2746.       2851.    
        2768.       2745.       2871.       2881.       2662.       2659.       2747.       2600.       2450.       2298.    
        2142.       1984.       1823.       1659.       1492.       1322.    
  61    2103.       2119.       2134.       2150.       2167.       2184.       2202.       2220.       2239.       2259.    
        2279.       2299.       2320.       2342.       2364.       2386.       2409.       2433.       2698.       2808.    
        3048.       3247.       3428.       3278.       3183.       2940.       2772.       2757.       2822.       2910.    
        2787.       2544.       2559.       2799.       2931.       2736.       2639.       2563.       2310.       2184.    
        2019.       2003.       2087.       2306.       2568.       2545.       2557.       2666.       2789.       2923.    
        3054.       2936.       2942.       3006.       2960.       2772.       2508.       2613.       2775.       2816.    
        2691.       2674.       2735.       2740.       2539.       2766.       2684.       2541.       2394.       2245.    
        2093.       1938.       1781.       1620.       1457.       1291.    
  62    2112.       2126.       2141.       2156.       2172.       2188.       2205.       2222.       2240.       2258.    
        2277.       2296.       2316.       2337.       2358.       2379.       2402.       2435.       2713.       2744.    
        2992.       3141.       3154.       3109.       2987.       2763.       2741.       2666.       2685.       2756.    
        2707.       2563.       2459.       2667.       2838.       2861.       2676.       2525.       2255.       2117.    
        1999.       2063.       2367.       2433.       2566.       2669.       2799.       2802.       2881.       2905.    
        2940.       2862.       2832.       2908.       2843.       2760.       2504.       2603.       2708.       2815.    
        2689.       2556.       2617.       2533.       2566.       2759.       2622.       2481.       2338.       2192.    
        2044.       1893.       1738.       1581.       1422.       1259.    
  63    2120.       2134.       2147.       2162.       2177.       2192.       2208.       2224.       2241.       2258.    
        2276.       2294.       2313.       2333.       2353.       2373.       2394.       2523.       2692.       2650.    
        2722.       2835.       2913.       3127.       2932.       2788.       2647.       2620.       2649.       2750.    
        2736.       2690.       2443.       2591.       2701.       2767.       2774.       2475.       2218.       2073.    
        2003.       2232.       2424.       2556.       2642.       2863.       2913.       2934.       2801.       2840.    
        2833.       2789.       2734.       2852.       2699.       2711.       2533.       2627.       2783.       2781.    
        2623.       2508.       2541.       2450.       2676.       2693.       2559.       2422.       2282.       2140.    
        1995.       1847.       1696.       1543.       1386.       1227.    
  64    2129.       2142.       2154.       2168.       2182.       2196.       2211.       2226.       2242.       2259.    
        2276.       2293.       2311.       2329.       2348.       2368.       2388.       2588.       2626.       2636.    
        2621.       2676.       2922.       3073.       2884.       2818.       2766.       2559.       2531.       2570.    
        2552.       2512.       2417.       2439.       2554.       2590.       2658.       2531.       2193.       2046.    
        2031.       2326.       2495.       2676.       2753.       2857.       2769.       2795.       2693.       2761.    
        2793.       2684.       2638.       2673.       2644.       2698.       2492.       2731.       2911.       2846.    
        2636.       2471.       2419.       2467.       2756.       2628.       2497.       2363.       2227.       2088.    
        1946.       1801.       1654.       1504.       1351.       1195.    
  65    2138.       2150.       2161.       2174.       2187.       2200.       2214.       2229.       2244.       2259.    
        2275.       2292.       2309.       2326.       2344.       2363.       2382.       2608.       2502.       2672.    
        2611.       2611.       2749.       2805.       2713.       2638.       2579.       2475.       2402.       2442.    
        2414.       2383.       2333.       2371.       2433.       2480.       2538.       2319.       2144.       2005.    
        2107.       2457.       2575.       2692.       2899.       2918.       2758.       2661.       2612.       2627.    
        2762.       2649.       2524.       2598.       2544.       2534.       2544.       2739.       2762.       2786.    
        2565.       2501.       2359.       2560.       2688.       2563.       2435.       2305.       2172.       2036.    
        1897.       1756.       1612.       1465.       1316.       1164.    
  66    2147.       2158.       2169.       2180.       2192.       2205.       2218.       2232.       2246.       2260.    
        2275.       2291.       2307.       2323.       2341.       2358.       2420.       2581.       2330.       2624.    
        2601.       2585.       2652.       2624.       2570.       2474.       2378.       2350.       2359.       2335.    
        2355.       2299.       2299.       2239.       2278.       2361.       2384.       2312.       2126.       1998.    
        2179.       2477.       2712.       2807.       2761.       2801.       2809.       2723.       2572.       2499.    
        2643.       2644.       2494.       2453.       2433.       2428.       2573.       2618.       2603.       2661.    
        2507.       2456.       2368.       2659.       2621.       2499.       2374.       2247.       2117.       1985.    
        1849.       1711.       1571.       1427.       1281.       1132.    
  67    2156.       2166.       2176.       2187.       2198.       2210.       2222.       2234.       2248.       2261.    
        2275.       2290.       2305.       2321.       2337.       2354.       2491.       2502.       2738.       2578.    
        2577.       2554.       2587.       2695.       2640.       2464.       2346.       2288.       2308.       2348.    
        2293.       2274.       2320.       2308.       2201.       2183.       2176.       2195.       2110.       1997.    
        2168.       2593.       2717.       2696.       2642.       2662.       2660.       2584.       2535.       2425.    
        2460.       2396.       2371.       2366.       2403.       2457.       2428.       2440.       2475.       2493.    
        2433.       2291.       2441.       2670.       2554.       2436.       2314.       2190.       2063.       1934.    
        1802.       1667.       1530.       1390.       1247.       1101.    
  68    2164.       2173.       2183.       2193.       2203.       2214.       2225.       2237.       2250.       2262.    
        2276.       2289.       2304.       2319.       2334.       2350.       2521.       2355.       2792.       2553.    
        2560.       2533.       2585.       2738.       2667.       2556.       2359.       2258.       2281.       2473.    
        2284.       2253.       2367.       2290.       2237.       2118.       2272.       2426.       2258.       1999.    
        2152.       2535.       2564.       2561.       2521.       2507.       2475.       2409.       2363.       2336.    
        2321.       2357.       2365.       2464.       2556.       2621.       2498.       2348.       2361.       2443.    
        2382.       2278.       2559.       2602.       2489.       2373.       2255.       2134.       2010.       1884.    
        1755.       1624.       1489.       1352.       1213.       1070.    
  69    2173.       2181.       2190.       2199.       2209.       2219.       2229.       2240.       2252.       2263.    
        2276.       2289.       2302.       2316.       2331.       2349.       2499.       2168.       2498.       2527.    
        2636.       2527.       2552.       2655.       2642.       2589.       2498.       2349.       2244.       2403.    
        2347.       2273.       2525.       2269.       2191.       2123.       2262.       2337.       2222.       1998.    
        2113.       2382.       2391.       2398.       2386.       2360.       2305.       2272.       2278.       2283.    
        2324.       2445.       2469.       2484.       2414.       2408.       2505.       2392.       2268.       2333.    
        2390.       2327.       2642.       2535.       2425.       2312.       2197.       2079.       1958.       1835.    
        1709.       1581.       1450.       1316.       1179.       1040.    
  70    2182.       2189.       2197.       2205.       2214.       2223.       2233.       2243.       2253.       2265.    
        2276.       2288.       2301.       2314.       2327.       2408.       2421.       2796.       2501.       2501.    
        2614.       2595.       2495.       2527.       2515.       2472.       2454.       2419.       2307.       2235.    
        2269.       2257.       2468.       2271.       2165.       2108.       2121.       2102.       2006.       1998.    
        2067.       2216.       2236.       2271.       2274.       2253.       2244.       2347.       2450.       2436.    
        2508.       2596.       2578.       2548.       2489.       2397.       2312.       2363.       2297.       2326.    
        2226.       2427.       2573.       2469.       2362.       2252.       2140.       2025.       1907.       1787.    
        1664.       1539.       1411.       1280.       1147.       1011.    
  71    2190.       2196.       2203.       2211.       2219.       2227.       2236.       2245.       2255.       2265.    
        2276.       2287.       2299.       2311.       2324.       2446.       2274.       2887.       2468.       2474.    
        2499.       2510.       2462.       2484.       2409.       2399.       2371.       2342.       2313.       2306.    
        2221.       2224.       2406.       2299.       2189.       2084.       2028.       2004.       2012.       2047.    
        2120.       2219.       2253.       2279.       2217.       2234.       2377.       2444.       2456.       2454.    
        2433.       2474.       2441.       2400.       2373.       2377.       2389.       2274.       2286.       2328.    
        2232.       2507.       2506.       2404.       2300.       2193.       2084.       1972.       1857.       1740.    
        1620.       1498.       1373.       1245.       1115.       982.3    
  72    2198.       2204.       2210.       2216.       2224.       2231.       2239.       2248.       2257.       2266.    
        2276.       2287.       2297.       2309.       2321.       2435.       2089.       2405.       2442.       2448.    
        2442.       2455.       2440.       2469.       2424.       2334.       2325.       2280.       2253.       2204.    
        2202.       2156.       2283.       2238.       2133.       2063.       2003.       2034.       2089.       2135.    
        2279.       2302.       2234.       2206.       2232.       2304.       2345.       2349.       2333.       2336.    
        2375.       2414.       2419.       2411.       2386.       2357.       2353.       2207.       2289.       2243.    
        2302.       2537.       2440.       2341.       2240.       2136.       2029.       1920.       1809.       1695.    
        1578.       1458.       1336.       1212.       1084.       954.6    
  73    2206.       2210.       2216.       2222.       2228.       2235.       2242.       2250.       2258.       2267.    
        2276.       2286.       2296.       2306.       2341.       2365.       2801.       2441.       2417.       2422.    
        2425.       2425.       2417.       2452.       2413.       2329.       2272.       2243.       2209.       2279.    
        2269.       2118.       2153.       2126.       2075.       2020.       2021.       2081.       2147.       2235.    
        2282.       2335.       2248.       2170.       2273.       2366.       2377.       2322.       2286.       2314.    
        2336.       2362.       2359.       2383.       2398.       2422.       2313.       2239.       2291.       2183.    
        2407.       2470.       2376.       2280.       2181.       2080.       1977.       1870.       1762.       1650.    
        1536.       1420.       1301.       1179.       1055.       928.1    
  74    2213.       2217.       2222.       2227.       2232.       2238.       2245.       2252.       2259.       2267.    
        2275.       2284.       2294.       2303.       2383.       2230.       2958.       2385.       2391.       2397.    
        2398.       2399.       2399.       2429.       2397.       2314.       2266.       2236.       2231.       2285.    
        2282.       2234.       2105.       2107.       2073.       1997.       2023.       2134.       2177.       2282.    
        2329.       2280.       2219.       2163.       2252.       2276.       2276.       2245.       2251.       2268.    
        2282.       2306.       2332.       2355.       2346.       2395.       2259.       2279.       2215.       2199.    
        2493.       2405.       2314.       2221.       2125.       2026.       1925.       1822.       1716.       1607.    
        1496.       1383.       1267.       1148.       1027.       902.7    
  75    2220.       2223.       2227.       2232.       2236.       2242.       2247.       2253.       2260.       2267.    
        2275.       2283.       2291.       2300.       2382.       2053.       2340.       2361.       2367.       2373.    
        2372.       2366.       2387.       2405.       2376.       2293.       2258.       2239.       2254.       2268.    
        2247.       2177.       2262.       2287.       2222.       2085.       2039.       2109.       2181.       2299.    
        2242.       2203.       2192.       2161.       2168.       2212.       2212.       2194.       2221.       2226.    
        2254.       2268.       2294.       2347.       2311.       2358.       2212.       2263.       2153.       2280.    
        2428.       2342.       2254.       2163.       2070.       1974.       1876.       1775.       1672.       1566.    
        1458.       1347.       1234.       1118.       999.6       878.6    
  76    2227.       2229.       2233.       2236.       2240.       2245.       2249.       2255.       2261.       2267.    
        2274.       2281.       2289.       2297.       2325.       2748.       2394.       2336.       2343.       2350.    
        2334.       2350.       2378.       2382.       2337.       2265.       2231.       2230.       2235.       2217.    
        2185.       2218.       2225.       2175.       2118.       2038.       2026.       2125.       2227.       2226.    
        2168.       2164.       2182.       2163.       2131.       2157.       2159.       2172.       2202.       2224.    
        2227.       2279.       2269.       2298.       2278.       2321.       2174.       2252.       2150.       2367.    
        2364.       2281.       2195.       2107.       2017.       1924.       1828.       1730.       1630.       1527.    
        1421.       1313.       1203.       1090.       974.1       856.0    
  77    2233.       2235.       2237.       2240.       2243.       2247.       2251.       2256.       2261.       2267.    
        2273.       2279.       2286.       2328.       2205.       3006.       2317.       2313.       2320.       2329.    
        2328.       2345.       2355.       2360.       2292.       2242.       2215.       2199.       2185.       2176.    
        2174.       2168.       2130.       2137.       2124.       2031.       1983.       2099.       2153.       2145.    
        2114.       2124.       2165.       2152.       2125.       2118.       2136.       2148.       2166.       2210.    
        2200.       2267.       2221.       2241.       2260.       2284.       2217.       2145.       2172.       2381.    
        2303.       2222.       2139.       2054.       1966.       1875.       1782.       1687.       1589.       1489.    
        1386.       1281.       1173.       1063.       950.2       834.9    
  78    2239.       2240.       2242.       2244.       2246.       2249.       2253.       2257.       2261.       2266.    
        2271.       2277.       2283.       2336.       2040.       2297.       2280.       2290.       2299.       2309.    
        2318.       2325.       2331.       2335.       2268.       2219.       2186.       2167.       2135.       2116.    
        2101.       2082.       2074.       2160.       2259.       2127.       1984.       2065.       2100.       2090.    
        2075.       2108.       2147.       2140.       2130.       2098.       2109.       2125.       2134.       2185.    
        2190.       2209.       2230.       2250.       2244.       2248.       2217.       2145.       2249.       2320.    
        2244.       2166.       2086.       2003.       1917.       1829.       1739.       1646.       1551.       1453.    
        1353.       1251.       1146.       1038.       928.0       815.5    
  79    2245.       2245.       2246.       2247.       2249.       2251.       2254.       2257.       2261.       2265.    
        2269.       2274.       2279.       2293.       2640.       2358.       2258.       2269.       2279.       2291.    
        2297.       2304.       2309.       2299.       2226.       2198.       2188.       2200.       2177.       2137.    
        2112.       2086.       2057.       2088.       2163.       2155.       1982.       2030.       2058.       2055.    
        2067.       2104.       2131.       2130.       2122.       2096.       2083.       2103.       2135.       2175.    
[...]
          2                 3           0            36   83     1       0.8076985264E-01      36   83    1      -0.9216151044E+05      0.9216244120E+05      0.1416132628E+06      0.1648364396E+00
          3                 3           0            36   83     1       0.5653889588E-01      36   83    1      -0.5754532338E+05      0.5754911562E+05      0.9216244120E+05      0.1648364396E+00
          4                 3           0            36   83     1       0.3957722644E-01      36   83    1      -0.3331400710E+05      0.3332442497E+05      0.5754911562E+05      0.1648364396E+00
          5                 3           0            36   83     1       0.2770405804E-01      36   83    1      -0.1635209299E+05      0.1637989782E+05      0.3332442497E+05      0.1648364396E+00
          6                 3           0            36   83     1       0.1939284030E-01      36   83    1      -0.4478756733E+04      0.4597591727E+04      0.1637989782E+05      0.1648364396E+00
          0                 4           2            36   83     1       0.1647586760E+00      31  111    1      -0.6505991117E+03      0.1097843206E+04      0.4597591727E+04      0.1647586760E+00
                                                   Max.-Head-Change                        Max.-Flux-Residual
  Residual-Control   Outer-Iter.   Inner-Iter.     Column Row Layer    Max.-Head-Change    Column Row Layer    Max.-Flux-Residual            L2-New               L2-Old           Solver-Max-Delh
          1                 4           0            36   83     1       0.1153310713E+00      36   83    1      -0.1609286526E+06      0.1609286626E+06      0.1097843206E+04      0.1647586760E+00
          2                 4           0            36   83     1       0.8073174850E-01      36   83    1      -0.1115002248E+06      0.1115008320E+06      0.1609286626E+06      0.1647586760E+00
          3                 4           0            36   83     1       0.5651222299E-01      36   83    1      -0.7690035503E+05      0.7690259417E+05      0.1115008320E+06      0.1647586760E+00
          4                 4           0            36   83     1       0.3955855542E-01      36   83    1      -0.5268046082E+05      0.5268565938E+05      0.7690259417E+05      0.1647586760E+00
          5                 4           0            36   83     1       0.2769098832E-01      36   83    1      -0.3572654215E+05      0.3573659026E+05      0.5268565938E+05      0.1647586760E+00
          6                 4           0            36   83     1       0.1938369150E-01      36   83    1      -0.2385880270E+05      0.2387663001E+05      0.3573659026E+05      0.1647586760E+00
          7                 4           0            36   83     1       0.1356858382E-01      36   83    1      -0.1555138690E+05      0.1558192511E+05      0.2387663001E+05      0.1647586760E+00
          8                 4           0            36   83     1       0.9498008509E-02      36   83    1      -0.9736196762E+04      0.9788636562E+04      0.1558192511E+05      0.1647586760E+00
          9                 4           0            36   83     1       0.6648605843E-02      36   83    1      -0.5665564137E+04      0.5759799749E+04      0.9788636562E+04      0.1647586760E+00
         10                 4           0            36   83     1       0.4654024011E-02      36   83    1      -0.2816121546E+04      0.3007484840E+04      0.5759799749E+04      0.1647586760E+00
                                                   Max.-Head-Change                        Max.-Flux-Residual
  Residual-Control   Outer-Iter.   Inner-Iter.     Column Row Layer    Max.-Head-Change    Column Row Layer    Max.-Flux-Residual            L2-New               L2-Old           Solver-Max-Delh
         11                 4           0            36   83     1       0.3257816752E-02      36   83    1      -0.8215118618E+03      0.1347633899E+04      0.3007484840E+04      0.1647586760E+00
          0                 5           2            36   83     1       0.1647456123E+00      31  111    1      -0.6383776097E+03      0.1077227307E+04      0.1347633899E+04      0.1647456123E+00
          1                 5           0            36   83     1       0.1153219266E+00      36   83    1      -0.1641734614E+06      0.1641734707E+06      0.1077227307E+04      0.1647456123E+00
          2                 5           0            36   83     1       0.8072534727E-01      36   83    1      -0.1147489495E+06      0.1147495175E+06      0.1641734707E+06      0.1647456123E+00
          3                 5           0            36   83     1       0.5650774213E-01      36   83    1      -0.8015182092E+05      0.8015388928E+05      0.1147495175E+06      0.1647456123E+00
          4                 5           0            36   83     1       0.3955541882E-01      36   83    1      -0.5593384555E+05      0.5593855955E+05      0.8015388928E+05      0.1647456123E+00
          5                 5           0            36   83     1       0.2768879270E-01      36   83    1      -0.3898127005E+05      0.3899013673E+05      0.5593855955E+05      0.1647456123E+00
          6                 5           0            36   83     1       0.1938215456E-01      36   83    1      -0.2711447082E+05      0.2712957528E+05      0.3899013673E+05      0.1647456123E+00
          7                 5           0            36   83     1       0.1356750796E-01      36   83    1      -0.1880771318E+05      0.1883203258E+05      0.2712957528E+05      0.1647456123E+00
          8                 5           0            36   83     1       0.9497255411E-02      36   83    1      -0.1299298375E+05      0.1303086354E+05      0.1883203258E+05      0.1647456123E+00
                                                   Max.-Head-Change                        Max.-Flux-Residual
  Residual-Control   Outer-Iter.   Inner-Iter.     Column Row Layer    Max.-Head-Change    Column Row Layer    Max.-Flux-Residual            L2-New               L2-Old           Solver-Max-Delh
          9                 5           0            36   83     1       0.6648078674E-02      36   83    1      -0.8922673626E+04      0.8980574348E+04      0.1303086354E+05      0.1647456123E+00
         10                 5           0            36   83     1       0.4653654993E-02      36   83    1      -0.6073456782E+04      0.6161155094E+04      0.8980574348E+04      0.1647456123E+00
         11                 5           0            36   83     1       0.3257558440E-02      36   83    1      -0.4079005121E+04      0.4211537833E+04      0.6161155094E+04      0.1647456123E+00
         12                 5           0            36   83     1       0.2280290869E-02      36   83    1      -0.2682889031E+04      0.2883559191E+04      0.4211537833E+04      0.1647456123E+00
         13                 5           0            36   83     1       0.1596203581E-02      36   83    1      -0.1705607807E+04      0.2009722335E+04      0.2883559191E+04      0.1647456123E+00
         14                 5           0            36   83     1       0.1117342488E-02      36   83    1      -0.1021510973E+04      0.1477301748E+04      0.2009722335E+04      0.1647456123E+00
         15                 5           0            36   83     1       0.7821397281E-03      31  111    1      -0.6342643377E+03      0.1199897434E+04      0.1477301748E+04      0.1647456123E+00
          0                 6           2            36   40     1       0.1471266747E+00      31  111    1      -0.6354983194E+03      0.1092145516E+04      0.1199897434E+04      0.1471266747E+00

    ------------------------------------------------
       NWT REQUIRED            6 OUTER ITERATIONS 
       AND A TOTAL OF         12 INNER ITERATIONS.
    ------------------------------------------------

 OUTPUT CONTROL FOR STRESS PERIOD    1   TIME STEP   33
    SAVE HEAD FOR ALL LAYERS
    SAVE DRAWDOWN FOR ALL LAYERS
    SAVE BUDGET
    PRINT BUDGET
 UBDSV1 SAVING "         STORAGE" ON UNIT   9 AT TIME STEP 33, STRESS PERIOD   1
 UBDSV2 SAVING "   CONSTANT HEAD" ON UNIT   9 AT TIME STEP 33, STRESS PERIOD   1
 UBDSV1 SAVING "FLOW RIGHT FACE " ON UNIT   9 AT TIME STEP 33, STRESS PERIOD   1
 UBDSV1 SAVING "FLOW FRONT FACE " ON UNIT   9 AT TIME STEP 33, STRESS PERIOD   1
 UBDSV4 SAVING "   RIVER LEAKAGE" ON UNIT   9 AT TIME STEP 33, STRESS PERIOD   1
 UBDSV3 SAVING "        RECHARGE" ON UNIT   9 AT TIME STEP 33, STRESS PERIOD   1

 HEAD WILL BE SAVED ON UNIT   37 AT END OF TIME STEP   33, STRESS PERIOD    1

 DRAWDOWN WILL BE SAVED ON UNIT   38 AT END OF TIME STEP   33, STRESS PERIOD    1
1
  VOLUMETRIC BUDGET FOR ENTIRE MODEL AT END OF TIME STEP   33, STRESS PERIOD   1
  ------------------------------------------------------------------------------

     CUMULATIVE VOLUMES      L**3       RATES FOR THIS TIME STEP      L**3/T
     ------------------                 ------------------------

           IN:                                      IN:
           ---                                      ---
             STORAGE =    31056736.0000               STORAGE =      930390.1875
       CONSTANT HEAD =           0.0000         CONSTANT HEAD =           0.0000
       RIVER LEAKAGE =    82266448.0000         RIVER LEAKAGE =      911394.5625
            RECHARGE =        1010.1597              RECHARGE =       8.6093E-03

            TOTAL IN =   113324192.0000              TOTAL IN =     1841784.7500

          OUT:                                     OUT:
          ----                                     ----
             STORAGE =   113271152.0000               STORAGE =     1836744.7500
       CONSTANT HEAD =           0.0000         CONSTANT HEAD =           0.0000
       RIVER LEAKAGE =       68307.3906         RIVER LEAKAGE =        5197.1777
            RECHARGE =           0.0000              RECHARGE =           0.0000

           TOTAL OUT =   113339456.0000             TOTAL OUT =     1841941.8750

            IN - OUT =      -15264.0000              IN - OUT =        -157.1250

 PERCENT DISCREPANCY =          -0.01     PERCENT DISCREPANCY =          -0.01






         TIME SUMMARY AT END OF TIME STEP   33 IN STRESS PERIOD    1
                    SECONDS     MINUTES      HOURS       DAYS        YEARS
                    -----------------------------------------------------------
   TIME STEP LENGTH  86400.      1440.0      24.000      1.0000     2.73785E-03
 STRESS PERIOD TIME 2.85120E+06  47520.      792.00      33.000     9.03491E-02
         TOTAL TIME 2.85120E+06  47520.      792.00      33.000     9.03491E-02
1
 
 SOLVING FOR HEAD 
                                                   Max.-Head-Change                        Max.-Flux-Residual
  Residual-Control   Outer-Iter.   Inner-Iter.     Column Row Layer    Max.-Head-Change    Column Row Layer    Max.-Flux-Residual            L2-New               L2-Old           Solver-Max-Delh
          0                 1           2            41   66     1       0.4951289653E+00      31  111    1       0.1464533804E+06      0.2470382723E+06      0.5838343343E+02      0.4951289653E+00
          0                 2           2            36   40     1       0.1509669678E+00      31  111    1      -0.1464572660E+05      0.2509270906E+05      0.2470382723E+06      0.1509669678E+00
          0                 3           2            36   40     1       0.1505621162E+00      31  111    1      -0.7322888555E+03      0.1254721835E+04      0.2509270906E+05      0.1505621162E+00

    ------------------------------------------------
       NWT REQUIRED            3 OUTER ITERATIONS 
       AND A TOTAL OF          6 INNER ITERATIONS.
    ------------------------------------------------

 OUTPUT CONTROL FOR STRESS PERIOD    1   TIME STEP   34
    SAVE HEAD FOR ALL LAYERS
    SAVE DRAWDOWN FOR ALL LAYERS
    SAVE BUDGET
    PRINT BUDGET
 UBDSV1 SAVING "         STORAGE" ON UNIT   9 AT TIME STEP 34, STRESS PERIOD   1
 UBDSV2 SAVING "   CONSTANT HEAD" ON UNIT   9 AT TIME STEP 34, STRESS PERIOD   1
 UBDSV1 SAVING "FLOW RIGHT FACE " ON UNIT   9 AT TIME STEP 34, STRESS PERIOD   1
 UBDSV1 SAVING "FLOW FRONT FACE " ON UNIT   9 AT TIME STEP 34, STRESS PERIOD   1
 UBDSV4 SAVING "   RIVER LEAKAGE" ON UNIT   9 AT TIME STEP 34, STRESS PERIOD   1
 UBDSV3 SAVING "        RECHARGE" ON UNIT   9 AT TIME STEP 34, STRESS PERIOD   1

 HEAD WILL BE SAVED ON UNIT   37 AT END OF TIME STEP   34, STRESS PERIOD    1

 DRAWDOWN WILL BE SAVED ON UNIT   38 AT END OF TIME STEP   34, STRESS PERIOD    1
1
  VOLUMETRIC BUDGET FOR ENTIRE MODEL AT END OF TIME STEP   34, STRESS PERIOD   1
  ------------------------------------------------------------------------------

     CUMULATIVE VOLUMES      L**3       RATES FOR THIS TIME STEP      L**3/T
     ------------------                 ------------------------

           IN:                                      IN:
           ---                                      ---
             STORAGE =    31986544.0000               STORAGE =      929807.7500
       CONSTANT HEAD =           0.0000         CONSTANT HEAD =           0.0000
       RIVER LEAKAGE =    83177840.0000         RIVER LEAKAGE =      911391.0000
            RECHARGE =        1010.1664              RECHARGE =       6.7851E-03

            TOTAL IN =   115165392.0000              TOTAL IN =     1841198.7500

          OUT:                                     OUT:
          ----                                     ----
             STORAGE =   115107576.0000               STORAGE =     1836424.3750
       CONSTANT HEAD =           0.0000         CONSTANT HEAD =           0.0000
       RIVER LEAKAGE =       73506.4375         RIVER LEAKAGE =        5199.0464
            RECHARGE =           0.0000              RECHARGE =           0.0000

           TOTAL OUT =   115181080.0000             TOTAL OUT =     1841623.3750

            IN - OUT =      -15688.0000              IN - OUT =        -424.6250

 PERCENT DISCREPANCY =          -0.01     PERCENT DISCREPANCY =          -0.02






         TIME SUMMARY AT END OF TIME STEP   34 IN STRESS PERIOD    1
                    SECONDS     MINUTES      HOURS       DAYS        YEARS
                    -----------------------------------------------------------
   TIME STEP LENGTH  86400.      1440.0      24.000      1.0000     2.73785E-03
 STRESS PERIOD TIME 2.93760E+06  48960.      816.00      34.000     9.30869E-02
         TOTAL TIME 2.93760E+06  48960.      816.00      34.000     9.30869E-02
1
 
 SOLVING FOR HEAD 
                                                   Max.-Head-Change                        Max.-Flux-Residual
  Residual-Control   Outer-Iter.   Inner-Iter.     Column Row Layer    Max.-Head-Change    Column Row Layer    Max.-Flux-Residual            L2-New               L2-Old           Solver-Max-Delh
          0                 1           2            41   66     1       0.4950897225E+00      31  111    1       0.1464179230E+06      0.2469325276E+06      0.2536880738E+03      0.4950897225E+00
          0                 2           2            41   66     1       0.1461892042E+01      16  126    1      -0.3999116644E+05      0.5245629433E+05      0.2469325276E+06      0.1461892042E+01
          0                 3           2            36   40     1       0.1539093302E+00      41   66    1      -0.2372571338E+04      0.3331858619E+04      0.5245629433E+05      0.1539093302E+00
          0                 4           2            36   40     1       0.1534834323E+00      51   30    1      -0.6836831823E+03      0.7038140183E+03      0.3331858619E+04      0.1534834323E+00

    ------------------------------------------------
       NWT REQUIRED            4 OUTER ITERATIONS 
       AND A TOTAL OF          8 INNER ITERATIONS.
    ------------------------------------------------

 OUTPUT CONTROL FOR STRESS PERIOD    1   TIME STEP   35
    SAVE HEAD FOR ALL LAYERS
    SAVE DRAWDOWN FOR ALL LAYERS
    SAVE BUDGET
    PRINT BUDGET
 UBDSV1 SAVING "         STORAGE" ON UNIT   9 AT TIME STEP 35, STRESS PERIOD   1
 UBDSV2 SAVING "   CONSTANT HEAD" ON UNIT   9 AT TIME STEP 35, STRESS PERIOD   1
 UBDSV1 SAVING "FLOW RIGHT FACE " ON UNIT   9 AT TIME STEP 35, STRESS PERIOD   1
 UBDSV1 SAVING "FLOW FRONT FACE " ON UNIT   9 AT TIME STEP 35, STRESS PERIOD   1
 UBDSV4 SAVING "   RIVER LEAKAGE" ON UNIT   9 AT TIME STEP 35, STRESS PERIOD   1
 UBDSV3 SAVING "        RECHARGE" ON UNIT   9 AT TIME STEP 35, STRESS PERIOD   1

 HEAD WILL BE SAVED ON UNIT   37 AT END OF TIME STEP   35, STRESS PERIOD    1

 DRAWDOWN WILL BE SAVED ON UNIT   38 AT END OF TIME STEP   35, STRESS PERIOD    1
1
  VOLUMETRIC BUDGET FOR ENTIRE MODEL AT END OF TIME STEP   35, STRESS PERIOD   1
  ------------------------------------------------------------------------------

     CUMULATIVE VOLUMES      L**3       RATES FOR THIS TIME STEP      L**3/T
     ------------------                 ------------------------

           IN:                                      IN:
           ---                                      ---
             STORAGE =    32915518.0000               STORAGE =      928974.4375
       CONSTANT HEAD =           0.0000         CONSTANT HEAD =           0.0000
       RIVER LEAKAGE =    84061792.0000         RIVER LEAKAGE =      883948.6250
            RECHARGE =        1010.1718              RECHARGE =       5.3531E-03

            TOTAL IN =   116978320.0000              TOTAL IN =     1812923.0000

          OUT:                                     OUT:
          ----                                     ----
             STORAGE =   116915304.0000               STORAGE =     1807727.2500
       CONSTANT HEAD =           0.0000         CONSTANT HEAD =           0.0000
       RIVER LEAKAGE =       78707.3828         RIVER LEAKAGE =        5200.9429
            RECHARGE =           0.0000              RECHARGE =           0.0000

           TOTAL OUT =   116994008.0000             TOTAL OUT =     1812928.2500

            IN - OUT =      -15688.0000              IN - OUT =          -5.2500

 PERCENT DISCREPANCY =          -0.01     PERCENT DISCREPANCY =          -0.00






         TIME SUMMARY AT END OF TIME STEP   35 IN STRESS PERIOD    1
                    SECONDS     MINUTES      HOURS       DAYS        YEARS
                    -----------------------------------------------------------
   TIME STEP LENGTH  86400.      1440.0      24.000      1.0000     2.73785E-03
 STRESS PERIOD TIME 3.02400E+06  50400.      840.00      35.000     9.58248E-02
         TOTAL TIME 3.02400E+06  50400.      840.00      35.000     9.58248E-02
1
 
 SOLVING FOR HEAD 
                                                   Max.-Head-Change                        Max.-Flux-Residual
  Residual-Control   Outer-Iter.   Inner-Iter.     Column Row Layer    Max.-Head-Change    Column Row Layer    Max.-Flux-Residual            L2-New               L2-Old           Solver-Max-Delh
          0                 1           2            41   66     1       0.1087031184E+01      31  111    1       0.1463822866E+06      0.2433154025E+06      0.3855981371E+02      0.1087031184E+01
          0                 2           2            36   40     1       0.1571800265E+00      31  111    1      -0.1463861685E+05      0.2433209959E+05      0.2433154025E+06      0.1571800265E+00
          0                 3           2            36   40     1       0.1567337702E+00      31  111    1      -0.7319333653E+03      0.1216687436E+04      0.2433209959E+05      0.1567337702E+00

    ------------------------------------------------
       NWT REQUIRED            3 OUTER ITERATIONS 
       AND A TOTAL OF          6 INNER ITERATIONS.
    ------------------------------------------------

 OUTPUT CONTROL FOR STRESS PERIOD    1   TIME STEP   36
    SAVE HEAD FOR ALL LAYERS
    SAVE DRAWDOWN FOR ALL LAYERS
    SAVE BUDGET
    PRINT BUDGET
 UBDSV1 SAVING "         STORAGE" ON UNIT   9 AT TIME STEP 36, STRESS PERIOD   1
